
---------- Begin Simulation Statistics ----------
simSeconds                                   5.344555                       # Number of seconds simulated (Second)
simTicks                                 5344554942786                       # Number of ticks simulated (Tick)
finalTick                                5344554942786                       # Number of ticks from beginning of simulation (restored from checkpoints and never reset) (Tick)
simFreq                                  1000000000000                       # The number of ticks per simulated second ((Tick/Second))
hostSeconds                                    323.72                       # Real time elapsed on the host (Second)
hostTickRate                              16509745768                       # The number of ticks simulated per host second (ticks/s) ((Tick/Second))
hostMemory                                    8637596                       # Number of bytes of host memory used (Byte)
simInsts                                     46394122                       # Number of instructions simulated (Count)
simOps                                       81921256                       # Number of ops (including micro ops) simulated (Count)
hostInstRate                                   143315                       # Simulator instruction rate (inst/s) ((Count/Second))
hostOpRate                                     253060                       # Simulator op (including micro ops) rate (op/s) ((Count/Second))
system.clk_domain.clock                         13333                       # Clock period in ticks (Tick)
system.clk_domain.voltage_domain.voltage            1                       # Voltage in Volts (Volt)
system.cpu.numCycles                        400851642                       # Number of cpu cycles simulated (Cycle)
system.cpu.cpi                               8.640139                       # CPI: cycles per instruction (core level) ((Cycle/Count))
system.cpu.ipc                               0.115739                       # IPC: instructions per cycle (core level) ((Count/Cycle))
system.cpu.numWorkItemsStarted                      0                       # Number of work items this cpu started (Count)
system.cpu.numWorkItemsCompleted                    0                       # Number of work items this cpu completed (Count)
system.cpu.branchPred.lookups_0::NoBranch            0                       # Number of BP lookups (Count)
system.cpu.branchPred.lookups_0::Return             0                       # Number of BP lookups (Count)
system.cpu.branchPred.lookups_0::CallDirect            0                       # Number of BP lookups (Count)
system.cpu.branchPred.lookups_0::CallIndirect            0                       # Number of BP lookups (Count)
system.cpu.branchPred.lookups_0::DirectCond            0                       # Number of BP lookups (Count)
system.cpu.branchPred.lookups_0::DirectUncond            0                       # Number of BP lookups (Count)
system.cpu.branchPred.lookups_0::IndirectCond            0                       # Number of BP lookups (Count)
system.cpu.branchPred.lookups_0::IndirectUncond            0                       # Number of BP lookups (Count)
system.cpu.branchPred.lookups_0::total              0                       # Number of BP lookups (Count)
system.cpu.branchPred.squashes_0::NoBranch            0                       # Number of branches that got squashed (completely removed) as an earlier branch was mispredicted. (Count)
system.cpu.branchPred.squashes_0::Return            0                       # Number of branches that got squashed (completely removed) as an earlier branch was mispredicted. (Count)
system.cpu.branchPred.squashes_0::CallDirect            0                       # Number of branches that got squashed (completely removed) as an earlier branch was mispredicted. (Count)
system.cpu.branchPred.squashes_0::CallIndirect            0                       # Number of branches that got squashed (completely removed) as an earlier branch was mispredicted. (Count)
system.cpu.branchPred.squashes_0::DirectCond            0                       # Number of branches that got squashed (completely removed) as an earlier branch was mispredicted. (Count)
system.cpu.branchPred.squashes_0::DirectUncond            0                       # Number of branches that got squashed (completely removed) as an earlier branch was mispredicted. (Count)
system.cpu.branchPred.squashes_0::IndirectCond            0                       # Number of branches that got squashed (completely removed) as an earlier branch was mispredicted. (Count)
system.cpu.branchPred.squashes_0::IndirectUncond            0                       # Number of branches that got squashed (completely removed) as an earlier branch was mispredicted. (Count)
system.cpu.branchPred.squashes_0::total             0                       # Number of branches that got squashed (completely removed) as an earlier branch was mispredicted. (Count)
system.cpu.branchPred.corrected_0::NoBranch            0                       # Number of branches that got corrected but not yet commited. Branches get corrected by decode or after execute. Also a branch misprediction can be detected out-of-order. Therefore, a corrected branch might not end up beeing committed in case an even earlier branch was mispredicted (Count)
system.cpu.branchPred.corrected_0::Return            0                       # Number of branches that got corrected but not yet commited. Branches get corrected by decode or after execute. Also a branch misprediction can be detected out-of-order. Therefore, a corrected branch might not end up beeing committed in case an even earlier branch was mispredicted (Count)
system.cpu.branchPred.corrected_0::CallDirect            0                       # Number of branches that got corrected but not yet commited. Branches get corrected by decode or after execute. Also a branch misprediction can be detected out-of-order. Therefore, a corrected branch might not end up beeing committed in case an even earlier branch was mispredicted (Count)
system.cpu.branchPred.corrected_0::CallIndirect            0                       # Number of branches that got corrected but not yet commited. Branches get corrected by decode or after execute. Also a branch misprediction can be detected out-of-order. Therefore, a corrected branch might not end up beeing committed in case an even earlier branch was mispredicted (Count)
system.cpu.branchPred.corrected_0::DirectCond            0                       # Number of branches that got corrected but not yet commited. Branches get corrected by decode or after execute. Also a branch misprediction can be detected out-of-order. Therefore, a corrected branch might not end up beeing committed in case an even earlier branch was mispredicted (Count)
system.cpu.branchPred.corrected_0::DirectUncond            0                       # Number of branches that got corrected but not yet commited. Branches get corrected by decode or after execute. Also a branch misprediction can be detected out-of-order. Therefore, a corrected branch might not end up beeing committed in case an even earlier branch was mispredicted (Count)
system.cpu.branchPred.corrected_0::IndirectCond            0                       # Number of branches that got corrected but not yet commited. Branches get corrected by decode or after execute. Also a branch misprediction can be detected out-of-order. Therefore, a corrected branch might not end up beeing committed in case an even earlier branch was mispredicted (Count)
system.cpu.branchPred.corrected_0::IndirectUncond            0                       # Number of branches that got corrected but not yet commited. Branches get corrected by decode or after execute. Also a branch misprediction can be detected out-of-order. Therefore, a corrected branch might not end up beeing committed in case an even earlier branch was mispredicted (Count)
system.cpu.branchPred.corrected_0::total            0                       # Number of branches that got corrected but not yet commited. Branches get corrected by decode or after execute. Also a branch misprediction can be detected out-of-order. Therefore, a corrected branch might not end up beeing committed in case an even earlier branch was mispredicted (Count)
system.cpu.branchPred.earlyResteers_0::NoBranch            0                       # Number of branches that got redirected after decode. (Count)
system.cpu.branchPred.earlyResteers_0::Return            0                       # Number of branches that got redirected after decode. (Count)
system.cpu.branchPred.earlyResteers_0::CallDirect            0                       # Number of branches that got redirected after decode. (Count)
system.cpu.branchPred.earlyResteers_0::CallIndirect            0                       # Number of branches that got redirected after decode. (Count)
system.cpu.branchPred.earlyResteers_0::DirectCond            0                       # Number of branches that got redirected after decode. (Count)
system.cpu.branchPred.earlyResteers_0::DirectUncond            0                       # Number of branches that got redirected after decode. (Count)
system.cpu.branchPred.earlyResteers_0::IndirectCond            0                       # Number of branches that got redirected after decode. (Count)
system.cpu.branchPred.earlyResteers_0::IndirectUncond            0                       # Number of branches that got redirected after decode. (Count)
system.cpu.branchPred.earlyResteers_0::total            0                       # Number of branches that got redirected after decode. (Count)
system.cpu.branchPred.committed_0::NoBranch            0                       # Number of branches finally committed  (Count)
system.cpu.branchPred.committed_0::Return            0                       # Number of branches finally committed  (Count)
system.cpu.branchPred.committed_0::CallDirect            0                       # Number of branches finally committed  (Count)
system.cpu.branchPred.committed_0::CallIndirect            0                       # Number of branches finally committed  (Count)
system.cpu.branchPred.committed_0::DirectCond            0                       # Number of branches finally committed  (Count)
system.cpu.branchPred.committed_0::DirectUncond            0                       # Number of branches finally committed  (Count)
system.cpu.branchPred.committed_0::IndirectCond            0                       # Number of branches finally committed  (Count)
system.cpu.branchPred.committed_0::IndirectUncond            0                       # Number of branches finally committed  (Count)
system.cpu.branchPred.committed_0::total            0                       # Number of branches finally committed  (Count)
system.cpu.branchPred.mispredicted_0::NoBranch            0                       # Number of committed branches that were mispredicted. (Count)
system.cpu.branchPred.mispredicted_0::Return            0                       # Number of committed branches that were mispredicted. (Count)
system.cpu.branchPred.mispredicted_0::CallDirect            0                       # Number of committed branches that were mispredicted. (Count)
system.cpu.branchPred.mispredicted_0::CallIndirect            0                       # Number of committed branches that were mispredicted. (Count)
system.cpu.branchPred.mispredicted_0::DirectCond            0                       # Number of committed branches that were mispredicted. (Count)
system.cpu.branchPred.mispredicted_0::DirectUncond            0                       # Number of committed branches that were mispredicted. (Count)
system.cpu.branchPred.mispredicted_0::IndirectCond            0                       # Number of committed branches that were mispredicted. (Count)
system.cpu.branchPred.mispredicted_0::IndirectUncond            0                       # Number of committed branches that were mispredicted. (Count)
system.cpu.branchPred.mispredicted_0::total            0                       # Number of committed branches that were mispredicted. (Count)
system.cpu.branchPred.targetProvider_0::NoTarget            0                       # The component providing the target for taken branches (Count)
system.cpu.branchPred.targetProvider_0::BTB            0                       # The component providing the target for taken branches (Count)
system.cpu.branchPred.targetProvider_0::RAS            0                       # The component providing the target for taken branches (Count)
system.cpu.branchPred.targetProvider_0::Indirect            0                       # The component providing the target for taken branches (Count)
system.cpu.branchPred.targetProvider_0::total            0                       # The component providing the target for taken branches (Count)
system.cpu.branchPred.targetWrong_0::NoBranch            0                       # Number of branches where the target was incorrect or not available at prediction time. (Count)
system.cpu.branchPred.targetWrong_0::Return            0                       # Number of branches where the target was incorrect or not available at prediction time. (Count)
system.cpu.branchPred.targetWrong_0::CallDirect            0                       # Number of branches where the target was incorrect or not available at prediction time. (Count)
system.cpu.branchPred.targetWrong_0::CallIndirect            0                       # Number of branches where the target was incorrect or not available at prediction time. (Count)
system.cpu.branchPred.targetWrong_0::DirectCond            0                       # Number of branches where the target was incorrect or not available at prediction time. (Count)
system.cpu.branchPred.targetWrong_0::DirectUncond            0                       # Number of branches where the target was incorrect or not available at prediction time. (Count)
system.cpu.branchPred.targetWrong_0::IndirectCond            0                       # Number of branches where the target was incorrect or not available at prediction time. (Count)
system.cpu.branchPred.targetWrong_0::IndirectUncond            0                       # Number of branches where the target was incorrect or not available at prediction time. (Count)
system.cpu.branchPred.targetWrong_0::total            0                       # Number of branches where the target was incorrect or not available at prediction time. (Count)
system.cpu.branchPred.condPredicted                 0                       # Number of conditional branches predicted (Count)
system.cpu.branchPred.condPredictedTaken            0                       # Number of conditional branches predicted as taken (Count)
system.cpu.branchPred.condIncorrect                 0                       # Number of conditional branches incorrect (Count)
system.cpu.branchPred.predTakenBTBMiss              0                       # Number of branches predicted taken but missed in BTB (Count)
system.cpu.branchPred.NotTakenMispredicted            0                       # Number branches predicted 'not taken' but turned out to be taken (Count)
system.cpu.branchPred.TakenMispredicted             0                       # Number branches predicted taken but are actually not taken (Count)
system.cpu.branchPred.BTBLookups                    0                       # Number of BTB lookups (Count)
system.cpu.branchPred.BTBUpdates                    0                       # Number of BTB updates (Count)
system.cpu.branchPred.BTBHits                       0                       # Number of BTB hits (Count)
system.cpu.branchPred.BTBHitRatio                 nan                       # BTB Hit Ratio (Ratio)
system.cpu.branchPred.BTBMispredicted               0                       # Number BTB mispredictions. No target found or target wrong (Count)
system.cpu.branchPred.indirectLookups               0                       # Number of indirect predictor lookups. (Count)
system.cpu.branchPred.indirectHits                  0                       # Number of indirect target hits. (Count)
system.cpu.branchPred.indirectMisses                0                       # Number of indirect misses. (Count)
system.cpu.branchPred.indirectMispredicted            0                       # Number of mispredicted indirect branches. (Count)
system.cpu.branchPred.btb.lookups::NoBranch            0                       # Number of BTB lookups (Count)
system.cpu.branchPred.btb.lookups::Return            0                       # Number of BTB lookups (Count)
system.cpu.branchPred.btb.lookups::CallDirect            0                       # Number of BTB lookups (Count)
system.cpu.branchPred.btb.lookups::CallIndirect            0                       # Number of BTB lookups (Count)
system.cpu.branchPred.btb.lookups::DirectCond            0                       # Number of BTB lookups (Count)
system.cpu.branchPred.btb.lookups::DirectUncond            0                       # Number of BTB lookups (Count)
system.cpu.branchPred.btb.lookups::IndirectCond            0                       # Number of BTB lookups (Count)
system.cpu.branchPred.btb.lookups::IndirectUncond            0                       # Number of BTB lookups (Count)
system.cpu.branchPred.btb.lookups::total            0                       # Number of BTB lookups (Count)
system.cpu.branchPred.btb.misses::NoBranch            0                       # Number of BTB misses (Count)
system.cpu.branchPred.btb.misses::Return            0                       # Number of BTB misses (Count)
system.cpu.branchPred.btb.misses::CallDirect            0                       # Number of BTB misses (Count)
system.cpu.branchPred.btb.misses::CallIndirect            0                       # Number of BTB misses (Count)
system.cpu.branchPred.btb.misses::DirectCond            0                       # Number of BTB misses (Count)
system.cpu.branchPred.btb.misses::DirectUncond            0                       # Number of BTB misses (Count)
system.cpu.branchPred.btb.misses::IndirectCond            0                       # Number of BTB misses (Count)
system.cpu.branchPred.btb.misses::IndirectUncond            0                       # Number of BTB misses (Count)
system.cpu.branchPred.btb.misses::total             0                       # Number of BTB misses (Count)
system.cpu.branchPred.btb.updates::NoBranch            0                       # Number of BTB updates (Count)
system.cpu.branchPred.btb.updates::Return            0                       # Number of BTB updates (Count)
system.cpu.branchPred.btb.updates::CallDirect            0                       # Number of BTB updates (Count)
system.cpu.branchPred.btb.updates::CallIndirect            0                       # Number of BTB updates (Count)
system.cpu.branchPred.btb.updates::DirectCond            0                       # Number of BTB updates (Count)
system.cpu.branchPred.btb.updates::DirectUncond            0                       # Number of BTB updates (Count)
system.cpu.branchPred.btb.updates::IndirectCond            0                       # Number of BTB updates (Count)
system.cpu.branchPred.btb.updates::IndirectUncond            0                       # Number of BTB updates (Count)
system.cpu.branchPred.btb.updates::total            0                       # Number of BTB updates (Count)
system.cpu.branchPred.btb.mispredict::NoBranch            0                       # Number of BTB mispredictions. No target found or target wrong. (Count)
system.cpu.branchPred.btb.mispredict::Return            0                       # Number of BTB mispredictions. No target found or target wrong. (Count)
system.cpu.branchPred.btb.mispredict::CallDirect            0                       # Number of BTB mispredictions. No target found or target wrong. (Count)
system.cpu.branchPred.btb.mispredict::CallIndirect            0                       # Number of BTB mispredictions. No target found or target wrong. (Count)
system.cpu.branchPred.btb.mispredict::DirectCond            0                       # Number of BTB mispredictions. No target found or target wrong. (Count)
system.cpu.branchPred.btb.mispredict::DirectUncond            0                       # Number of BTB mispredictions. No target found or target wrong. (Count)
system.cpu.branchPred.btb.mispredict::IndirectCond            0                       # Number of BTB mispredictions. No target found or target wrong. (Count)
system.cpu.branchPred.btb.mispredict::IndirectUncond            0                       # Number of BTB mispredictions. No target found or target wrong. (Count)
system.cpu.branchPred.btb.mispredict::total            0                       # Number of BTB mispredictions. No target found or target wrong. (Count)
system.cpu.branchPred.btb.power_state.pwrStateResidencyTicks::UNDEFINED 5344554942786                       # Cumulative time (in ticks) in various power states (Tick)
system.cpu.branchPred.indirectBranchPred.lookups            0                       # Number of lookups (Count)
system.cpu.branchPred.indirectBranchPred.hits            0                       # Number of hits of a tag (Count)
system.cpu.branchPred.indirectBranchPred.misses            0                       # Number of misses (Count)
system.cpu.branchPred.indirectBranchPred.targetRecords            0                       # Number of targets that where recorded/installed in the cache (Count)
system.cpu.branchPred.indirectBranchPred.indirectRecords            0                       # Number of indirect branches/calls recorded in the indirect hist (Count)
system.cpu.branchPred.indirectBranchPred.speculativeOverflows            0                       # Number of times more than the allowed capacity for speculative branches/calls where in flight and destroy the path history (Count)
system.cpu.branchPred.ras.pushes                    0                       # Number of times a PC was pushed onto the RAS (Count)
system.cpu.branchPred.ras.pops                      0                       # Number of times a PC was poped from the RAS (Count)
system.cpu.branchPred.ras.squashes                  0                       # Number of times the stack operation was squashed due to wrong speculation. (Count)
system.cpu.branchPred.ras.used                      0                       # Number of times the RAS is the provider (Count)
system.cpu.branchPred.ras.correct                   0                       # Number of times the RAS is the provider and the prediction is correct (Count)
system.cpu.branchPred.ras.incorrect                 0                       # Number of times the RAS is the provider and the prediction is wrong (Count)
system.cpu.commitStats0.numInsts             46394122                       # Number of instructions committed (thread level) (Count)
system.cpu.commitStats0.numOps               81921256                       # Number of ops (including micro ops) committed (thread level) (Count)
system.cpu.commitStats0.numInstsNotNOP              0                       # Number of instructions committed excluding NOPs or prefetches (Count)
system.cpu.commitStats0.numOpsNotNOP                0                       # Number of Ops (including micro ops) Simulated (Count)
system.cpu.commitStats0.cpi                  8.640139                       # CPI: cycles per instruction (thread level) ((Cycle/Count))
system.cpu.commitStats0.ipc                  0.115739                       # IPC: instructions per cycle (thread level) ((Count/Cycle))
system.cpu.commitStats0.numMemRefs                  0                       # Number of memory references committed (Count)
system.cpu.commitStats0.numFpInsts                  0                       # Number of float instructions (Count)
system.cpu.commitStats0.numIntInsts                 0                       # Number of integer instructions (Count)
system.cpu.commitStats0.numLoadInsts                0                       # Number of load instructions (Count)
system.cpu.commitStats0.numStoreInsts               0                       # Number of store instructions (Count)
system.cpu.commitStats0.numVecInsts                 0                       # Number of vector instructions (Count)
system.cpu.commitStats0.committedInstType::No_OpClass       433337      0.53%      0.53% # Class of committed instruction. (Count)
system.cpu.commitStats0.committedInstType::IntAlu     60564332     73.93%     74.46% # Class of committed instruction. (Count)
system.cpu.commitStats0.committedInstType::IntMult        63813      0.08%     74.54% # Class of committed instruction. (Count)
system.cpu.commitStats0.committedInstType::IntDiv        40010      0.05%     74.59% # Class of committed instruction. (Count)
system.cpu.commitStats0.committedInstType::FloatAdd         7657      0.01%     74.59% # Class of committed instruction. (Count)
system.cpu.commitStats0.committedInstType::FloatCmp            0      0.00%     74.59% # Class of committed instruction. (Count)
system.cpu.commitStats0.committedInstType::FloatCvt         1232      0.00%     74.60% # Class of committed instruction. (Count)
system.cpu.commitStats0.committedInstType::FloatMult            0      0.00%     74.60% # Class of committed instruction. (Count)
system.cpu.commitStats0.committedInstType::FloatMultAcc            0      0.00%     74.60% # Class of committed instruction. (Count)
system.cpu.commitStats0.committedInstType::FloatDiv            0      0.00%     74.60% # Class of committed instruction. (Count)
system.cpu.commitStats0.committedInstType::FloatMisc            0      0.00%     74.60% # Class of committed instruction. (Count)
system.cpu.commitStats0.committedInstType::FloatSqrt            0      0.00%     74.60% # Class of committed instruction. (Count)
system.cpu.commitStats0.committedInstType::SimdAdd         6642      0.01%     74.60% # Class of committed instruction. (Count)
system.cpu.commitStats0.committedInstType::SimdAddAcc            0      0.00%     74.60% # Class of committed instruction. (Count)
system.cpu.commitStats0.committedInstType::SimdAlu       159292      0.19%     74.80% # Class of committed instruction. (Count)
system.cpu.commitStats0.committedInstType::SimdCmp           12      0.00%     74.80% # Class of committed instruction. (Count)
system.cpu.commitStats0.committedInstType::SimdCvt        13890      0.02%     74.82% # Class of committed instruction. (Count)
system.cpu.commitStats0.committedInstType::SimdMisc        16543      0.02%     74.84% # Class of committed instruction. (Count)
system.cpu.commitStats0.committedInstType::SimdMult            0      0.00%     74.84% # Class of committed instruction. (Count)
system.cpu.commitStats0.committedInstType::SimdMultAcc            0      0.00%     74.84% # Class of committed instruction. (Count)
system.cpu.commitStats0.committedInstType::SimdMatMultAcc            0      0.00%     74.84% # Class of committed instruction. (Count)
system.cpu.commitStats0.committedInstType::SimdShift         1809      0.00%     74.84% # Class of committed instruction. (Count)
system.cpu.commitStats0.committedInstType::SimdShiftAcc            0      0.00%     74.84% # Class of committed instruction. (Count)
system.cpu.commitStats0.committedInstType::SimdDiv            0      0.00%     74.84% # Class of committed instruction. (Count)
system.cpu.commitStats0.committedInstType::SimdSqrt            0      0.00%     74.84% # Class of committed instruction. (Count)
system.cpu.commitStats0.committedInstType::SimdFloatAdd           27      0.00%     74.84% # Class of committed instruction. (Count)
system.cpu.commitStats0.committedInstType::SimdFloatAlu            0      0.00%     74.84% # Class of committed instruction. (Count)
system.cpu.commitStats0.committedInstType::SimdFloatCmp            0      0.00%     74.84% # Class of committed instruction. (Count)
system.cpu.commitStats0.committedInstType::SimdFloatCvt          198      0.00%     74.84% # Class of committed instruction. (Count)
system.cpu.commitStats0.committedInstType::SimdFloatDiv            3      0.00%     74.84% # Class of committed instruction. (Count)
system.cpu.commitStats0.committedInstType::SimdFloatMisc            0      0.00%     74.84% # Class of committed instruction. (Count)
system.cpu.commitStats0.committedInstType::SimdFloatMult            0      0.00%     74.84% # Class of committed instruction. (Count)
system.cpu.commitStats0.committedInstType::SimdFloatMultAcc            0      0.00%     74.84% # Class of committed instruction. (Count)
system.cpu.commitStats0.committedInstType::SimdFloatMatMultAcc            0      0.00%     74.84% # Class of committed instruction. (Count)
system.cpu.commitStats0.committedInstType::SimdFloatSqrt           24      0.00%     74.84% # Class of committed instruction. (Count)
system.cpu.commitStats0.committedInstType::SimdReduceAdd            0      0.00%     74.84% # Class of committed instruction. (Count)
system.cpu.commitStats0.committedInstType::SimdReduceAlu            0      0.00%     74.84% # Class of committed instruction. (Count)
system.cpu.commitStats0.committedInstType::SimdReduceCmp            0      0.00%     74.84% # Class of committed instruction. (Count)
system.cpu.commitStats0.committedInstType::SimdFloatReduceAdd            0      0.00%     74.84% # Class of committed instruction. (Count)
system.cpu.commitStats0.committedInstType::SimdFloatReduceCmp            0      0.00%     74.84% # Class of committed instruction. (Count)
system.cpu.commitStats0.committedInstType::SimdAes            0      0.00%     74.84% # Class of committed instruction. (Count)
system.cpu.commitStats0.committedInstType::SimdAesMix            0      0.00%     74.84% # Class of committed instruction. (Count)
system.cpu.commitStats0.committedInstType::SimdSha1Hash            0      0.00%     74.84% # Class of committed instruction. (Count)
system.cpu.commitStats0.committedInstType::SimdSha1Hash2            0      0.00%     74.84% # Class of committed instruction. (Count)
system.cpu.commitStats0.committedInstType::SimdSha256Hash            0      0.00%     74.84% # Class of committed instruction. (Count)
system.cpu.commitStats0.committedInstType::SimdSha256Hash2            0      0.00%     74.84% # Class of committed instruction. (Count)
system.cpu.commitStats0.committedInstType::SimdShaSigma2            0      0.00%     74.84% # Class of committed instruction. (Count)
system.cpu.commitStats0.committedInstType::SimdShaSigma3            0      0.00%     74.84% # Class of committed instruction. (Count)
system.cpu.commitStats0.committedInstType::SimdPredAlu            0      0.00%     74.84% # Class of committed instruction. (Count)
system.cpu.commitStats0.committedInstType::Matrix            0      0.00%     74.84% # Class of committed instruction. (Count)
system.cpu.commitStats0.committedInstType::MatrixMov            0      0.00%     74.84% # Class of committed instruction. (Count)
system.cpu.commitStats0.committedInstType::MatrixOP            0      0.00%     74.84% # Class of committed instruction. (Count)
system.cpu.commitStats0.committedInstType::MemRead     15849275     19.35%     94.19% # Class of committed instruction. (Count)
system.cpu.commitStats0.committedInstType::MemWrite      4283805      5.23%     99.41% # Class of committed instruction. (Count)
system.cpu.commitStats0.committedInstType::FloatMemRead       163334      0.20%     99.61% # Class of committed instruction. (Count)
system.cpu.commitStats0.committedInstType::FloatMemWrite       316021      0.39%    100.00% # Class of committed instruction. (Count)
system.cpu.commitStats0.committedInstType::IprAccess            0      0.00%    100.00% # Class of committed instruction. (Count)
system.cpu.commitStats0.committedInstType::InstPrefetch            0      0.00%    100.00% # Class of committed instruction. (Count)
system.cpu.commitStats0.committedInstType::SimdUnitStrideLoad            0      0.00%    100.00% # Class of committed instruction. (Count)
system.cpu.commitStats0.committedInstType::SimdUnitStrideStore            0      0.00%    100.00% # Class of committed instruction. (Count)
system.cpu.commitStats0.committedInstType::SimdUnitStrideMaskLoad            0      0.00%    100.00% # Class of committed instruction. (Count)
system.cpu.commitStats0.committedInstType::SimdUnitStrideMaskStore            0      0.00%    100.00% # Class of committed instruction. (Count)
system.cpu.commitStats0.committedInstType::SimdStridedLoad            0      0.00%    100.00% # Class of committed instruction. (Count)
system.cpu.commitStats0.committedInstType::SimdStridedStore            0      0.00%    100.00% # Class of committed instruction. (Count)
system.cpu.commitStats0.committedInstType::SimdIndexedLoad            0      0.00%    100.00% # Class of committed instruction. (Count)
system.cpu.commitStats0.committedInstType::SimdIndexedStore            0      0.00%    100.00% # Class of committed instruction. (Count)
system.cpu.commitStats0.committedInstType::SimdWholeRegisterLoad            0      0.00%    100.00% # Class of committed instruction. (Count)
system.cpu.commitStats0.committedInstType::SimdWholeRegisterStore            0      0.00%    100.00% # Class of committed instruction. (Count)
system.cpu.commitStats0.committedInstType::SimdUnitStrideFaultOnlyFirstLoad            0      0.00%    100.00% # Class of committed instruction. (Count)
system.cpu.commitStats0.committedInstType::SimdUnitStrideSegmentedLoad            0      0.00%    100.00% # Class of committed instruction. (Count)
system.cpu.commitStats0.committedInstType::SimdUnitStrideSegmentedStore            0      0.00%    100.00% # Class of committed instruction. (Count)
system.cpu.commitStats0.committedInstType::SimdExt            0      0.00%    100.00% # Class of committed instruction. (Count)
system.cpu.commitStats0.committedInstType::SimdFloatExt            0      0.00%    100.00% # Class of committed instruction. (Count)
system.cpu.commitStats0.committedInstType::SimdConfig            0      0.00%    100.00% # Class of committed instruction. (Count)
system.cpu.commitStats0.committedInstType::total     81921256                       # Class of committed instruction. (Count)
system.cpu.executeStats0.numInsts                   0                       # Number of executed instructions (Count)
system.cpu.executeStats0.numNop                     0                       # Number of nop insts executed (Count)
system.cpu.executeStats0.numBranches                0                       # Number of branches executed (Count)
system.cpu.executeStats0.numLoadInsts               0                       # Number of load instructions executed (Count)
system.cpu.executeStats0.numStoreInsts              0                       # Number of stores executed (Count)
system.cpu.executeStats0.instRate                   0                       # Inst execution rate ((Count/Cycle))
system.cpu.executeStats0.numFpRegWrites             0                       # Number of times the floating registers were written (Count)
system.cpu.executeStats0.numMemRefs                 0                       # Number of memory refs (Count)
system.cpu.executeStats0.numVecAluAccesses            0                       # Number of vector alu accesses (Count)
system.cpu.executeStats0.numDiscardedOps     15090794                       # Number of ops (including micro ops) which were discarded before commit (Count)
system.cpu.fetch2.intInstructions                  68                       # Number of integer instructions successfully decoded (Count)
system.cpu.fetch2.fpInstructions                    0                       # Number of floating point instructions successfully decoded (Count)
system.cpu.fetch2.vecInstructions                   0                       # Number of SIMD instructions successfully decoded (Count)
system.cpu.fetch2.loadInstructions                  0                       # Number of memory load instructions successfully decoded (Count)
system.cpu.fetch2.storeInstructions                 0                       # Number of memory store instructions successfully decoded (Count)
system.cpu.fetch2.amoInstructions                   0                       # Number of memory atomic instructions successfully decoded (Count)
system.cpu.fetchStats0.numInsts                     0                       # Number of instructions fetched (thread level) (Count)
system.cpu.fetchStats0.numOps                       0                       # Number of ops (including micro ops) fetched (thread level) (Count)
system.cpu.fetchStats0.fetchRate                    0                       # Number of inst fetches per cycle ((Count/Cycle))
system.cpu.fetchStats0.branchRate                   0                       # Number of branch fetches per cycle (Ratio)
system.cpu.fetchStats0.numFetchSuspends             0                       # Number of times Execute suspended instruction fetching (Count)
system.cpu.interrupts.clk_domain.clock         213328                       # Clock period in ticks (Tick)
system.cpu.mmu.dtb.rdAccesses                19006237                       # TLB accesses on read requests (Count)
system.cpu.mmu.dtb.wrAccesses                 4904813                       # TLB accesses on write requests (Count)
system.cpu.mmu.dtb.rdMisses                      8399                       # TLB misses on read requests (Count)
system.cpu.mmu.dtb.wrMisses                     28914                       # TLB misses on write requests (Count)
system.cpu.mmu.dtb.walker.power_state.pwrStateResidencyTicks::UNDEFINED 5344554942786                       # Cumulative time (in ticks) in various power states (Tick)
system.cpu.mmu.itb.rdAccesses                       0                       # TLB accesses on read requests (Count)
system.cpu.mmu.itb.wrAccesses                15338812                       # TLB accesses on write requests (Count)
system.cpu.mmu.itb.rdMisses                         0                       # TLB misses on read requests (Count)
system.cpu.mmu.itb.wrMisses                       530                       # TLB misses on write requests (Count)
system.cpu.mmu.itb.walker.power_state.pwrStateResidencyTicks::UNDEFINED 5344554942786                       # Cumulative time (in ticks) in various power states (Tick)
system.cpu.power_state.pwrStateResidencyTicks::ON 5344554942786                       # Cumulative time (in ticks) in various power states (Tick)
system.cpu.thread_0.numInsts                 46394122                       # Number of Instructions committed (Count)
system.cpu.thread_0.numOps                   81921256                       # Number of Ops committed (Count)
system.cpu.thread_0.numMemRefs                      0                       # Number of Memory References (Count)
system.cpu.workload.numSyscalls                   167                       # Number of system calls (Count)
system.mem_ctrl.avgPriority_cpu.inst::samples  15338668.00                       # Average QoS priority value for accepted requests (Count)
system.mem_ctrl.avgPriority_cpu.data::samples  17163594.00                       # Average QoS priority value for accepted requests (Count)
system.mem_ctrl.priorityMinLatency       0.000000018750                       # per QoS priority minimum request to response latency (Second)
system.mem_ctrl.priorityMaxLatency       0.142981871198                       # per QoS priority maximum request to response latency (Second)
system.mem_ctrl.numReadWriteTurnArounds          4877                       # Number of turnarounds from READ to WRITE (Count)
system.mem_ctrl.numWriteReadTurnArounds          4877                       # Number of turnarounds from WRITE to READ (Count)
system.mem_ctrl.numStayReadState             70799137                       # Number of times bus staying in READ state (Count)
system.mem_ctrl.numStayWriteState               78106                       # Number of times bus staying in WRITE state (Count)
system.mem_ctrl.readReqs                     33892063                       # Number of read requests accepted (Count)
system.mem_ctrl.writeReqs                     4599366                       # Number of write requests accepted (Count)
system.mem_ctrl.readBursts                   33892063                       # Number of controller read bursts, including those serviced by the write queue (Count)
system.mem_ctrl.writeBursts                   4599366                       # Number of controller write bursts, including those merged in the write queue (Count)
system.mem_ctrl.servicedByWrQ                 1472637                       # Number of controller read bursts serviced by the write queue (Count)
system.mem_ctrl.mergedWrBursts                4516530                       # Number of controller write bursts merged with an existing one (Count)
system.mem_ctrl.neitherReadNorWriteReqs             0                       # Number of requests that are neither read nor write (Count)
system.mem_ctrl.avgRdQLen                        1.08                       # Average read queue length when enqueuing ((Count/Tick))
system.mem_ctrl.avgWrQLen                       26.49                       # Average write queue length when enqueuing ((Count/Tick))
system.mem_ctrl.numRdRetry                          0                       # Number of times read queue was full causing retry (Count)
system.mem_ctrl.numWrRetry                          0                       # Number of times write queue was full causing retry (Count)
system.mem_ctrl.readPktSize::0                3699101                       # Read request sizes (log2) (Count)
system.mem_ctrl.readPktSize::1                  15932                       # Read request sizes (log2) (Count)
system.mem_ctrl.readPktSize::2                 873778                       # Read request sizes (log2) (Count)
system.mem_ctrl.readPktSize::3               13964584                       # Read request sizes (log2) (Count)
system.mem_ctrl.readPktSize::4                      0                       # Read request sizes (log2) (Count)
system.mem_ctrl.readPktSize::5                      0                       # Read request sizes (log2) (Count)
system.mem_ctrl.readPktSize::6               15338668                       # Read request sizes (log2) (Count)
system.mem_ctrl.writePktSize::0                612651                       # Write request sizes (log2) (Count)
system.mem_ctrl.writePktSize::1                  1698                       # Write request sizes (log2) (Count)
system.mem_ctrl.writePktSize::2                244942                       # Write request sizes (log2) (Count)
system.mem_ctrl.writePktSize::3               3740075                       # Write request sizes (log2) (Count)
system.mem_ctrl.writePktSize::4                     0                       # Write request sizes (log2) (Count)
system.mem_ctrl.writePktSize::5                     0                       # Write request sizes (log2) (Count)
system.mem_ctrl.writePktSize::6                     0                       # Write request sizes (log2) (Count)
system.mem_ctrl.rdQLenPdf::0                 30181852                       # What read queue length does an incoming req see (Count)
system.mem_ctrl.rdQLenPdf::1                  2223845                       # What read queue length does an incoming req see (Count)
system.mem_ctrl.rdQLenPdf::2                    13729                       # What read queue length does an incoming req see (Count)
system.mem_ctrl.rdQLenPdf::3                        0                       # What read queue length does an incoming req see (Count)
system.mem_ctrl.rdQLenPdf::4                        0                       # What read queue length does an incoming req see (Count)
system.mem_ctrl.rdQLenPdf::5                        0                       # What read queue length does an incoming req see (Count)
system.mem_ctrl.rdQLenPdf::6                        0                       # What read queue length does an incoming req see (Count)
system.mem_ctrl.rdQLenPdf::7                        0                       # What read queue length does an incoming req see (Count)
system.mem_ctrl.rdQLenPdf::8                        0                       # What read queue length does an incoming req see (Count)
system.mem_ctrl.rdQLenPdf::9                        0                       # What read queue length does an incoming req see (Count)
system.mem_ctrl.rdQLenPdf::10                       0                       # What read queue length does an incoming req see (Count)
system.mem_ctrl.rdQLenPdf::11                       0                       # What read queue length does an incoming req see (Count)
system.mem_ctrl.rdQLenPdf::12                       0                       # What read queue length does an incoming req see (Count)
system.mem_ctrl.rdQLenPdf::13                       0                       # What read queue length does an incoming req see (Count)
system.mem_ctrl.rdQLenPdf::14                       0                       # What read queue length does an incoming req see (Count)
system.mem_ctrl.rdQLenPdf::15                       0                       # What read queue length does an incoming req see (Count)
system.mem_ctrl.rdQLenPdf::16                       0                       # What read queue length does an incoming req see (Count)
system.mem_ctrl.rdQLenPdf::17                       0                       # What read queue length does an incoming req see (Count)
system.mem_ctrl.rdQLenPdf::18                       0                       # What read queue length does an incoming req see (Count)
system.mem_ctrl.rdQLenPdf::19                       0                       # What read queue length does an incoming req see (Count)
system.mem_ctrl.rdQLenPdf::20                       0                       # What read queue length does an incoming req see (Count)
system.mem_ctrl.rdQLenPdf::21                       0                       # What read queue length does an incoming req see (Count)
system.mem_ctrl.rdQLenPdf::22                       0                       # What read queue length does an incoming req see (Count)
system.mem_ctrl.rdQLenPdf::23                       0                       # What read queue length does an incoming req see (Count)
system.mem_ctrl.rdQLenPdf::24                       0                       # What read queue length does an incoming req see (Count)
system.mem_ctrl.rdQLenPdf::25                       0                       # What read queue length does an incoming req see (Count)
system.mem_ctrl.rdQLenPdf::26                       0                       # What read queue length does an incoming req see (Count)
system.mem_ctrl.rdQLenPdf::27                       0                       # What read queue length does an incoming req see (Count)
system.mem_ctrl.rdQLenPdf::28                       0                       # What read queue length does an incoming req see (Count)
system.mem_ctrl.rdQLenPdf::29                       0                       # What read queue length does an incoming req see (Count)
system.mem_ctrl.rdQLenPdf::30                       0                       # What read queue length does an incoming req see (Count)
system.mem_ctrl.rdQLenPdf::31                       0                       # What read queue length does an incoming req see (Count)
system.mem_ctrl.wrQLenPdf::0                        1                       # What write queue length does an incoming req see (Count)
system.mem_ctrl.wrQLenPdf::1                        1                       # What write queue length does an incoming req see (Count)
system.mem_ctrl.wrQLenPdf::2                        1                       # What write queue length does an incoming req see (Count)
system.mem_ctrl.wrQLenPdf::3                        1                       # What write queue length does an incoming req see (Count)
system.mem_ctrl.wrQLenPdf::4                        1                       # What write queue length does an incoming req see (Count)
system.mem_ctrl.wrQLenPdf::5                        1                       # What write queue length does an incoming req see (Count)
system.mem_ctrl.wrQLenPdf::6                        1                       # What write queue length does an incoming req see (Count)
system.mem_ctrl.wrQLenPdf::7                        1                       # What write queue length does an incoming req see (Count)
system.mem_ctrl.wrQLenPdf::8                        1                       # What write queue length does an incoming req see (Count)
system.mem_ctrl.wrQLenPdf::9                        1                       # What write queue length does an incoming req see (Count)
system.mem_ctrl.wrQLenPdf::10                       1                       # What write queue length does an incoming req see (Count)
system.mem_ctrl.wrQLenPdf::11                       1                       # What write queue length does an incoming req see (Count)
system.mem_ctrl.wrQLenPdf::12                       1                       # What write queue length does an incoming req see (Count)
system.mem_ctrl.wrQLenPdf::13                       1                       # What write queue length does an incoming req see (Count)
system.mem_ctrl.wrQLenPdf::14                       1                       # What write queue length does an incoming req see (Count)
system.mem_ctrl.wrQLenPdf::15                    2302                       # What write queue length does an incoming req see (Count)
system.mem_ctrl.wrQLenPdf::16                    2417                       # What write queue length does an incoming req see (Count)
system.mem_ctrl.wrQLenPdf::17                    4873                       # What write queue length does an incoming req see (Count)
system.mem_ctrl.wrQLenPdf::18                    4877                       # What write queue length does an incoming req see (Count)
system.mem_ctrl.wrQLenPdf::19                    4897                       # What write queue length does an incoming req see (Count)
system.mem_ctrl.wrQLenPdf::20                    4884                       # What write queue length does an incoming req see (Count)
system.mem_ctrl.wrQLenPdf::21                    4880                       # What write queue length does an incoming req see (Count)
system.mem_ctrl.wrQLenPdf::22                    4914                       # What write queue length does an incoming req see (Count)
system.mem_ctrl.wrQLenPdf::23                    4879                       # What write queue length does an incoming req see (Count)
system.mem_ctrl.wrQLenPdf::24                    4879                       # What write queue length does an incoming req see (Count)
system.mem_ctrl.wrQLenPdf::25                    4878                       # What write queue length does an incoming req see (Count)
system.mem_ctrl.wrQLenPdf::26                    4877                       # What write queue length does an incoming req see (Count)
system.mem_ctrl.wrQLenPdf::27                    4878                       # What write queue length does an incoming req see (Count)
system.mem_ctrl.wrQLenPdf::28                    4877                       # What write queue length does an incoming req see (Count)
system.mem_ctrl.wrQLenPdf::29                    4877                       # What write queue length does an incoming req see (Count)
system.mem_ctrl.wrQLenPdf::30                    4877                       # What write queue length does an incoming req see (Count)
system.mem_ctrl.wrQLenPdf::31                    4877                       # What write queue length does an incoming req see (Count)
system.mem_ctrl.wrQLenPdf::32                    4877                       # What write queue length does an incoming req see (Count)
system.mem_ctrl.wrQLenPdf::33                       1                       # What write queue length does an incoming req see (Count)
system.mem_ctrl.wrQLenPdf::34                       0                       # What write queue length does an incoming req see (Count)
system.mem_ctrl.wrQLenPdf::35                       0                       # What write queue length does an incoming req see (Count)
system.mem_ctrl.wrQLenPdf::36                       0                       # What write queue length does an incoming req see (Count)
system.mem_ctrl.wrQLenPdf::37                       0                       # What write queue length does an incoming req see (Count)
system.mem_ctrl.wrQLenPdf::38                       0                       # What write queue length does an incoming req see (Count)
system.mem_ctrl.wrQLenPdf::39                       0                       # What write queue length does an incoming req see (Count)
system.mem_ctrl.wrQLenPdf::40                       0                       # What write queue length does an incoming req see (Count)
system.mem_ctrl.wrQLenPdf::41                       0                       # What write queue length does an incoming req see (Count)
system.mem_ctrl.wrQLenPdf::42                       0                       # What write queue length does an incoming req see (Count)
system.mem_ctrl.wrQLenPdf::43                       0                       # What write queue length does an incoming req see (Count)
system.mem_ctrl.wrQLenPdf::44                       0                       # What write queue length does an incoming req see (Count)
system.mem_ctrl.wrQLenPdf::45                       0                       # What write queue length does an incoming req see (Count)
system.mem_ctrl.wrQLenPdf::46                       0                       # What write queue length does an incoming req see (Count)
system.mem_ctrl.wrQLenPdf::47                       0                       # What write queue length does an incoming req see (Count)
system.mem_ctrl.wrQLenPdf::48                       0                       # What write queue length does an incoming req see (Count)
system.mem_ctrl.wrQLenPdf::49                       0                       # What write queue length does an incoming req see (Count)
system.mem_ctrl.wrQLenPdf::50                       0                       # What write queue length does an incoming req see (Count)
system.mem_ctrl.wrQLenPdf::51                       0                       # What write queue length does an incoming req see (Count)
system.mem_ctrl.wrQLenPdf::52                       0                       # What write queue length does an incoming req see (Count)
system.mem_ctrl.wrQLenPdf::53                       0                       # What write queue length does an incoming req see (Count)
system.mem_ctrl.wrQLenPdf::54                       0                       # What write queue length does an incoming req see (Count)
system.mem_ctrl.wrQLenPdf::55                       0                       # What write queue length does an incoming req see (Count)
system.mem_ctrl.wrQLenPdf::56                       0                       # What write queue length does an incoming req see (Count)
system.mem_ctrl.wrQLenPdf::57                       0                       # What write queue length does an incoming req see (Count)
system.mem_ctrl.wrQLenPdf::58                       0                       # What write queue length does an incoming req see (Count)
system.mem_ctrl.wrQLenPdf::59                       0                       # What write queue length does an incoming req see (Count)
system.mem_ctrl.wrQLenPdf::60                       0                       # What write queue length does an incoming req see (Count)
system.mem_ctrl.wrQLenPdf::61                       0                       # What write queue length does an incoming req see (Count)
system.mem_ctrl.wrQLenPdf::62                       0                       # What write queue length does an incoming req see (Count)
system.mem_ctrl.wrQLenPdf::63                       0                       # What write queue length does an incoming req see (Count)
system.mem_ctrl.rdPerTurnAround::samples         4877                       # Reads before turning the bus around for writes (Count)
system.mem_ctrl.rdPerTurnAround::mean     6647.355546                       # Reads before turning the bus around for writes (Count)
system.mem_ctrl.rdPerTurnAround::gmean    2230.569673                       # Reads before turning the bus around for writes (Count)
system.mem_ctrl.rdPerTurnAround::stdev   13684.099718                       # Reads before turning the bus around for writes (Count)
system.mem_ctrl.rdPerTurnAround::0-16383         4726     96.90%     96.90% # Reads before turning the bus around for writes (Count)
system.mem_ctrl.rdPerTurnAround::16384-32767          109      2.23%     99.14% # Reads before turning the bus around for writes (Count)
system.mem_ctrl.rdPerTurnAround::32768-49151           11      0.23%     99.36% # Reads before turning the bus around for writes (Count)
system.mem_ctrl.rdPerTurnAround::49152-65535            3      0.06%     99.43% # Reads before turning the bus around for writes (Count)
system.mem_ctrl.rdPerTurnAround::65536-81919            4      0.08%     99.51% # Reads before turning the bus around for writes (Count)
system.mem_ctrl.rdPerTurnAround::81920-98303            4      0.08%     99.59% # Reads before turning the bus around for writes (Count)
system.mem_ctrl.rdPerTurnAround::98304-114687            1      0.02%     99.61% # Reads before turning the bus around for writes (Count)
system.mem_ctrl.rdPerTurnAround::114688-131071            3      0.06%     99.67% # Reads before turning the bus around for writes (Count)
system.mem_ctrl.rdPerTurnAround::131072-147455            4      0.08%     99.75% # Reads before turning the bus around for writes (Count)
system.mem_ctrl.rdPerTurnAround::147456-163839            1      0.02%     99.77% # Reads before turning the bus around for writes (Count)
system.mem_ctrl.rdPerTurnAround::163840-180223            2      0.04%     99.82% # Reads before turning the bus around for writes (Count)
system.mem_ctrl.rdPerTurnAround::180224-196607            3      0.06%     99.88% # Reads before turning the bus around for writes (Count)
system.mem_ctrl.rdPerTurnAround::229376-245759            1      0.02%     99.90% # Reads before turning the bus around for writes (Count)
system.mem_ctrl.rdPerTurnAround::245760-262143            2      0.04%     99.94% # Reads before turning the bus around for writes (Count)
system.mem_ctrl.rdPerTurnAround::278528-294911            3      0.06%    100.00% # Reads before turning the bus around for writes (Count)
system.mem_ctrl.rdPerTurnAround::total           4877                       # Reads before turning the bus around for writes (Count)
system.mem_ctrl.wrPerTurnAround::samples         4877                       # Writes before turning the bus around for reads (Count)
system.mem_ctrl.wrPerTurnAround::mean       16.980521                       # Writes before turning the bus around for reads (Count)
system.mem_ctrl.wrPerTurnAround::gmean      16.950616                       # Writes before turning the bus around for reads (Count)
system.mem_ctrl.wrPerTurnAround::stdev       1.009710                       # Writes before turning the bus around for reads (Count)
system.mem_ctrl.wrPerTurnAround::16              2466     50.56%     50.56% # Writes before turning the bus around for reads (Count)
system.mem_ctrl.wrPerTurnAround::17               108      2.21%     52.78% # Writes before turning the bus around for reads (Count)
system.mem_ctrl.wrPerTurnAround::18              2235     45.83%     98.61% # Writes before turning the bus around for reads (Count)
system.mem_ctrl.wrPerTurnAround::19                68      1.39%    100.00% # Writes before turning the bus around for reads (Count)
system.mem_ctrl.wrPerTurnAround::total           4877                       # Writes before turning the bus around for reads (Count)
system.mem_ctrl.bytesReadWrQ                 94248768                       # Total number of bytes read from write queue (Byte)
system.mem_ctrl.bytesReadSys               1100607531                       # Total read bytes from the system interface side (Byte)
system.mem_ctrl.bytesWrittenSys              31516401                       # Total written bytes from the system interface side (Byte)
system.mem_ctrl.avgRdBWSys               205930623.36941329                       # Average system read bandwidth in Byte/s ((Byte/Second))
system.mem_ctrl.avgWrBWSys               5896917.76722033                       # Average system write bandwidth in Byte/s ((Byte/Second))
system.mem_ctrl.totGap                   5344554916120                       # Total gap between requests (Tick)
system.mem_ctrl.avgGap                      138850.52                       # Average gap between requests ((Tick/Count))
system.mem_ctrl.requestorReadBytes::cpu.inst    981674752                       # Per-requestor bytes read from memory (Byte)
system.mem_ctrl.requestorReadBytes::cpu.data    107950130                       # Per-requestor bytes read from memory (Byte)
system.mem_ctrl.requestorWriteBytes::cpu.data       588070                       # Per-requestor bytes write to memory (Byte)
system.mem_ctrl.requestorReadRate::cpu.inst 183677548.927633315325                       # Per-requestor bytes read from memory rate ((Byte/Second))
system.mem_ctrl.requestorReadRate::cpu.data 20198151.418708767742                       # Per-requestor bytes read from memory rate ((Byte/Second))
system.mem_ctrl.requestorWriteRate::cpu.data 110031.612790091734                       # Per-requestor bytes write to memory rate ((Byte/Second))
system.mem_ctrl.requestorReadAccesses::cpu.inst     15338668                       # Per-requestor read serviced memory accesses (Count)
system.mem_ctrl.requestorReadAccesses::cpu.data     18553395                       # Per-requestor read serviced memory accesses (Count)
system.mem_ctrl.requestorWriteAccesses::cpu.data      4599366                       # Per-requestor write serviced memory accesses (Count)
system.mem_ctrl.requestorReadTotalLat::cpu.inst 398061081877                       # Per-requestor read total memory access latency (Tick)
system.mem_ctrl.requestorReadTotalLat::cpu.data 465682091461                       # Per-requestor read total memory access latency (Tick)
system.mem_ctrl.requestorWriteTotalLat::cpu.data 139599576604953                       # Per-requestor write total memory access latency (Tick)
system.mem_ctrl.requestorReadAvgLat::cpu.inst     25951.48                       # Per-requestor read average memory access latency ((Tick/Count))
system.mem_ctrl.requestorReadAvgLat::cpu.data     25099.56                       # Per-requestor read average memory access latency ((Tick/Count))
system.mem_ctrl.requestorWriteAvgLat::cpu.data  30351917.33                       # Per-requestor write average memory access latency ((Tick/Count))
system.mem_ctrl.dram.bytesRead::cpu.inst    981674752                       # Number of bytes read from this memory (Byte)
system.mem_ctrl.dram.bytesRead::cpu.data    118932779                       # Number of bytes read from this memory (Byte)
system.mem_ctrl.dram.bytesRead::total      1100607531                       # Number of bytes read from this memory (Byte)
system.mem_ctrl.dram.bytesInstRead::cpu.inst    981674752                       # Number of instructions bytes read from this memory (Byte)
system.mem_ctrl.dram.bytesInstRead::total    981674752                       # Number of instructions bytes read from this memory (Byte)
system.mem_ctrl.dram.bytesWritten::cpu.data     31516401                       # Number of bytes written to this memory (Byte)
system.mem_ctrl.dram.bytesWritten::total     31516401                       # Number of bytes written to this memory (Byte)
system.mem_ctrl.dram.numReads::cpu.inst      15338668                       # Number of read requests responded to by this memory (Count)
system.mem_ctrl.dram.numReads::cpu.data      18553395                       # Number of read requests responded to by this memory (Count)
system.mem_ctrl.dram.numReads::total         33892063                       # Number of read requests responded to by this memory (Count)
system.mem_ctrl.dram.numWrites::cpu.data      4599366                       # Number of write requests responded to by this memory (Count)
system.mem_ctrl.dram.numWrites::total         4599366                       # Number of write requests responded to by this memory (Count)
system.mem_ctrl.dram.bwRead::cpu.inst       183677549                       # Total read bandwidth from this memory ((Byte/Second))
system.mem_ctrl.dram.bwRead::cpu.data        22253074                       # Total read bandwidth from this memory ((Byte/Second))
system.mem_ctrl.dram.bwRead::total          205930623                       # Total read bandwidth from this memory ((Byte/Second))
system.mem_ctrl.dram.bwInstRead::cpu.inst    183677549                       # Instruction read bandwidth from this memory ((Byte/Second))
system.mem_ctrl.dram.bwInstRead::total      183677549                       # Instruction read bandwidth from this memory ((Byte/Second))
system.mem_ctrl.dram.bwWrite::cpu.data        5896918                       # Write bandwidth from this memory ((Byte/Second))
system.mem_ctrl.dram.bwWrite::total           5896918                       # Write bandwidth from this memory ((Byte/Second))
system.mem_ctrl.dram.bwTotal::cpu.inst      183677549                       # Total bandwidth to/from this memory ((Byte/Second))
system.mem_ctrl.dram.bwTotal::cpu.data       28149992                       # Total bandwidth to/from this memory ((Byte/Second))
system.mem_ctrl.dram.bwTotal::total         211827541                       # Total bandwidth to/from this memory ((Byte/Second))
system.mem_ctrl.dram.readBursts              32419426                       # Number of DRAM read bursts (Count)
system.mem_ctrl.dram.writeBursts                82814                       # Number of DRAM write bursts (Count)
system.mem_ctrl.dram.perBankRdBursts::0       9055696                       # Per bank write bursts (Count)
system.mem_ctrl.dram.perBankRdBursts::1       6164813                       # Per bank write bursts (Count)
system.mem_ctrl.dram.perBankRdBursts::2        309611                       # Per bank write bursts (Count)
system.mem_ctrl.dram.perBankRdBursts::3        310441                       # Per bank write bursts (Count)
system.mem_ctrl.dram.perBankRdBursts::4        643538                       # Per bank write bursts (Count)
system.mem_ctrl.dram.perBankRdBursts::5        664788                       # Per bank write bursts (Count)
system.mem_ctrl.dram.perBankRdBursts::6       2664387                       # Per bank write bursts (Count)
system.mem_ctrl.dram.perBankRdBursts::7        247658                       # Per bank write bursts (Count)
system.mem_ctrl.dram.perBankRdBursts::8       1340578                       # Per bank write bursts (Count)
system.mem_ctrl.dram.perBankRdBursts::9        267706                       # Per bank write bursts (Count)
system.mem_ctrl.dram.perBankRdBursts::10       260966                       # Per bank write bursts (Count)
system.mem_ctrl.dram.perBankRdBursts::11       556130                       # Per bank write bursts (Count)
system.mem_ctrl.dram.perBankRdBursts::12       244244                       # Per bank write bursts (Count)
system.mem_ctrl.dram.perBankRdBursts::13      3109497                       # Per bank write bursts (Count)
system.mem_ctrl.dram.perBankRdBursts::14      6288645                       # Per bank write bursts (Count)
system.mem_ctrl.dram.perBankRdBursts::15       290728                       # Per bank write bursts (Count)
system.mem_ctrl.dram.perBankWrBursts::0         11158                       # Per bank write bursts (Count)
system.mem_ctrl.dram.perBankWrBursts::1         24776                       # Per bank write bursts (Count)
system.mem_ctrl.dram.perBankWrBursts::2          3541                       # Per bank write bursts (Count)
system.mem_ctrl.dram.perBankWrBursts::3          2679                       # Per bank write bursts (Count)
system.mem_ctrl.dram.perBankWrBursts::4          2685                       # Per bank write bursts (Count)
system.mem_ctrl.dram.perBankWrBursts::5          7054                       # Per bank write bursts (Count)
system.mem_ctrl.dram.perBankWrBursts::6          2545                       # Per bank write bursts (Count)
system.mem_ctrl.dram.perBankWrBursts::7          2518                       # Per bank write bursts (Count)
system.mem_ctrl.dram.perBankWrBursts::8          2728                       # Per bank write bursts (Count)
system.mem_ctrl.dram.perBankWrBursts::9          2614                       # Per bank write bursts (Count)
system.mem_ctrl.dram.perBankWrBursts::10         3555                       # Per bank write bursts (Count)
system.mem_ctrl.dram.perBankWrBursts::11         2894                       # Per bank write bursts (Count)
system.mem_ctrl.dram.perBankWrBursts::12         3370                       # Per bank write bursts (Count)
system.mem_ctrl.dram.perBankWrBursts::13         2862                       # Per bank write bursts (Count)
system.mem_ctrl.dram.perBankWrBursts::14         3792                       # Per bank write bursts (Count)
system.mem_ctrl.dram.perBankWrBursts::15         4043                       # Per bank write bursts (Count)
system.mem_ctrl.dram.totQLat             255878935838                       # Total ticks spent queuing (Tick)
system.mem_ctrl.dram.totBusLat           162097130000                       # Total ticks spent in databus transfers (Tick)
system.mem_ctrl.dram.totMemAccLat        863743173338                       # Total ticks spent from burst creation until serviced by the DRAM (Tick)
system.mem_ctrl.dram.avgQLat                  7892.77                       # Average queueing delay per DRAM burst ((Tick/Count))
system.mem_ctrl.dram.avgBusLat                5000.00                       # Average bus latency per DRAM burst ((Tick/Count))
system.mem_ctrl.dram.avgMemAccLat            26642.77                       # Average memory access latency per DRAM burst ((Tick/Count))
system.mem_ctrl.dram.readRowHits             26904800                       # Number of row buffer hits during reads (Count)
system.mem_ctrl.dram.writeRowHits               74309                       # Number of row buffer hits during writes (Count)
system.mem_ctrl.dram.readRowHitRate             82.99                       # Row buffer hit rate for reads (Ratio)
system.mem_ctrl.dram.writeRowHitRate            89.73                       # Row buffer hit rate for writes (Ratio)
system.mem_ctrl.dram.bytesPerActivate::samples      5523125                       # Bytes accessed per row activation (Byte)
system.mem_ctrl.dram.bytesPerActivate::mean   376.624176                       # Bytes accessed per row activation (Byte)
system.mem_ctrl.dram.bytesPerActivate::gmean   238.717571                       # Bytes accessed per row activation (Byte)
system.mem_ctrl.dram.bytesPerActivate::stdev   341.963225                       # Bytes accessed per row activation (Byte)
system.mem_ctrl.dram.bytesPerActivate::0-127      1426919     25.84%     25.84% # Bytes accessed per row activation (Byte)
system.mem_ctrl.dram.bytesPerActivate::128-255      1160131     21.00%     46.84% # Bytes accessed per row activation (Byte)
system.mem_ctrl.dram.bytesPerActivate::256-383      1002937     18.16%     65.00% # Bytes accessed per row activation (Byte)
system.mem_ctrl.dram.bytesPerActivate::384-511       418062      7.57%     72.57% # Bytes accessed per row activation (Byte)
system.mem_ctrl.dram.bytesPerActivate::512-639       179594      3.25%     75.82% # Bytes accessed per row activation (Byte)
system.mem_ctrl.dram.bytesPerActivate::640-767       196539      3.56%     79.38% # Bytes accessed per row activation (Byte)
system.mem_ctrl.dram.bytesPerActivate::768-895       165285      2.99%     82.37% # Bytes accessed per row activation (Byte)
system.mem_ctrl.dram.bytesPerActivate::896-1023       157409      2.85%     85.22% # Bytes accessed per row activation (Byte)
system.mem_ctrl.dram.bytesPerActivate::1024-1151       816249     14.78%    100.00% # Bytes accessed per row activation (Byte)
system.mem_ctrl.dram.bytesPerActivate::total      5523125                       # Bytes accessed per row activation (Byte)
system.mem_ctrl.dram.dramBytesRead         2074843264                       # Total bytes read (Byte)
system.mem_ctrl.dram.dramBytesWritten         5300096                       # Total bytes written (Byte)
system.mem_ctrl.dram.avgRdBW               388.216285                       # Average DRAM read bandwidth in MiBytes/s ((Byte/Second))
system.mem_ctrl.dram.avgWrBW                 0.991681                       # Average DRAM write bandwidth in MiBytes/s ((Byte/Second))
system.mem_ctrl.dram.peakBW                  12800.00                       # Theoretical peak bandwidth in MiByte/s ((Byte/Second))
system.mem_ctrl.dram.busUtil                     3.04                       # Data bus utilization in percentage (Ratio)
system.mem_ctrl.dram.busUtilRead                 3.03                       # Data bus utilization in percentage for reads (Ratio)
system.mem_ctrl.dram.busUtilWrite                0.01                       # Data bus utilization in percentage for writes (Ratio)
system.mem_ctrl.dram.pageHitRate                83.01                       # Row buffer hit rate, read and write combined (Ratio)
system.mem_ctrl.dram.power_state.pwrStateResidencyTicks::UNDEFINED 5344554942786                       # Cumulative time (in ticks) in various power states (Tick)
system.mem_ctrl.dram.rank0.actEnergy      24939598740                       # Energy for activate commands per rank (pJ) (Joule)
system.mem_ctrl.dram.rank0.preEnergy      13255695915                       # Energy for precharge commands per rank (pJ) (Joule)
system.mem_ctrl.dram.rank0.readEnergy    143235054480                       # Energy for read commands per rank (pJ) (Joule)
system.mem_ctrl.dram.rank0.writeEnergy      297310320                       # Energy for write commands per rank (pJ) (Joule)
system.mem_ctrl.dram.rank0.refreshEnergy 421894427760.000061                       # Energy for refresh commands per rank (pJ) (Joule)
system.mem_ctrl.dram.rank0.actBackEnergy 2351674211100                       # Energy for active background per rank (pJ) (Joule)
system.mem_ctrl.dram.rank0.preBackEnergy  71951868000                       # Energy for precharge background per rank (pJ) (Joule)
system.mem_ctrl.dram.rank0.actPowerDownEnergy            0                       # Energy for active power-down per rank (pJ) (Joule)
system.mem_ctrl.dram.rank0.prePowerDownEnergy            0                       # Energy for precharge power-down per rank (pJ) (Joule)
system.mem_ctrl.dram.rank0.selfRefreshEnergy            0                       # Energy for self refresh per rank (pJ) (Joule)
system.mem_ctrl.dram.rank0.totalEnergy   3027248166315                       # Total energy per rank (pJ) (Joule)
system.mem_ctrl.dram.rank0.averagePower    566.417260                       # Core power per rank (mW) (Watt)
system.mem_ctrl.dram.rank0.totalIdleTime            0                       # Total Idle time Per DRAM Rank (Tick)
system.mem_ctrl.dram.rank0.pwrStateTime::IDLE 162875645668                       # Time in different power states (Tick)
system.mem_ctrl.dram.rank0.pwrStateTime::REF 178466340000                       # Time in different power states (Tick)
system.mem_ctrl.dram.rank0.pwrStateTime::SREF            0                       # Time in different power states (Tick)
system.mem_ctrl.dram.rank0.pwrStateTime::PRE_PDN            0                       # Time in different power states (Tick)
system.mem_ctrl.dram.rank0.pwrStateTime::ACT 5003212957118                       # Time in different power states (Tick)
system.mem_ctrl.dram.rank0.pwrStateTime::ACT_PDN            0                       # Time in different power states (Tick)
system.mem_ctrl.dram.rank1.actEnergy      14495556600                       # Energy for activate commands per rank (pJ) (Joule)
system.mem_ctrl.dram.rank1.preEnergy       7704563460                       # Energy for precharge commands per rank (pJ) (Joule)
system.mem_ctrl.dram.rank1.readEnergy     88239647160                       # Energy for read commands per rank (pJ) (Joule)
system.mem_ctrl.dram.rank1.writeEnergy      134978760                       # Energy for write commands per rank (pJ) (Joule)
system.mem_ctrl.dram.rank1.refreshEnergy 421894427760.000061                       # Energy for refresh commands per rank (pJ) (Joule)
system.mem_ctrl.dram.rank1.actBackEnergy 2137455738360                       # Energy for active background per rank (pJ) (Joule)
system.mem_ctrl.dram.rank1.preBackEnergy 252346371360                       # Energy for precharge background per rank (pJ) (Joule)
system.mem_ctrl.dram.rank1.actPowerDownEnergy            0                       # Energy for active power-down per rank (pJ) (Joule)
system.mem_ctrl.dram.rank1.prePowerDownEnergy            0                       # Energy for precharge power-down per rank (pJ) (Joule)
system.mem_ctrl.dram.rank1.selfRefreshEnergy            0                       # Energy for self refresh per rank (pJ) (Joule)
system.mem_ctrl.dram.rank1.totalEnergy   2922271283460                       # Total energy per rank (pJ) (Joule)
system.mem_ctrl.dram.rank1.averagePower    546.775422                       # Core power per rank (mW) (Watt)
system.mem_ctrl.dram.rank1.totalIdleTime            0                       # Total Idle time Per DRAM Rank (Tick)
system.mem_ctrl.dram.rank1.pwrStateTime::IDLE 633595499415                       # Time in different power states (Tick)
system.mem_ctrl.dram.rank1.pwrStateTime::REF 178466340000                       # Time in different power states (Tick)
system.mem_ctrl.dram.rank1.pwrStateTime::SREF            0                       # Time in different power states (Tick)
system.mem_ctrl.dram.rank1.pwrStateTime::PRE_PDN            0                       # Time in different power states (Tick)
system.mem_ctrl.dram.rank1.pwrStateTime::ACT 4532493103371                       # Time in different power states (Tick)
system.mem_ctrl.dram.rank1.pwrStateTime::ACT_PDN            0                       # Time in different power states (Tick)
system.mem_ctrl.power_state.pwrStateResidencyTicks::UNDEFINED 5344554942786                       # Cumulative time (in ticks) in various power states (Tick)
system.membus.transDist::ReadReq             33866592                       # Transaction distribution (Count)
system.membus.transDist::ReadResp            33866590                       # Transaction distribution (Count)
system.membus.transDist::WriteReq             4573897                       # Transaction distribution (Count)
system.membus.transDist::WriteResp            4573897                       # Transaction distribution (Count)
system.membus.transDist::SoftPFReq                  2                       # Transaction distribution (Count)
system.membus.transDist::SoftPFResp                 2                       # Transaction distribution (Count)
system.membus.transDist::LockedRMWReadReq        25469                       # Transaction distribution (Count)
system.membus.transDist::LockedRMWReadResp        25469                       # Transaction distribution (Count)
system.membus.transDist::LockedRMWWriteReq        25469                       # Transaction distribution (Count)
system.membus.transDist::LockedRMWWriteResp        25469                       # Transaction distribution (Count)
[...]
system.mem_ctrl.dram.bwInstRead::total      218147383                       # Instruction read bandwidth from this memory ((Byte/Second))
system.mem_ctrl.dram.bwWrite::cpu.data        8849523                       # Write bandwidth from this memory ((Byte/Second))
system.mem_ctrl.dram.bwWrite::total           8849523                       # Write bandwidth from this memory ((Byte/Second))
system.mem_ctrl.dram.bwTotal::cpu.inst      218147383                       # Total bandwidth to/from this memory ((Byte/Second))
system.mem_ctrl.dram.bwTotal::cpu.data       27495287                       # Total bandwidth to/from this memory ((Byte/Second))
system.mem_ctrl.dram.bwTotal::total         245642670                       # Total bandwidth to/from this memory ((Byte/Second))
system.mem_ctrl.dram.readBursts               5358273                       # Number of DRAM read bursts (Count)
system.mem_ctrl.dram.writeBursts                18487                       # Number of DRAM write bursts (Count)
system.mem_ctrl.dram.perBankRdBursts::0       1055697                       # Per bank write bursts (Count)
system.mem_ctrl.dram.perBankRdBursts::1       1532222                       # Per bank write bursts (Count)
system.mem_ctrl.dram.perBankRdBursts::2        321096                       # Per bank write bursts (Count)
system.mem_ctrl.dram.perBankRdBursts::3        196668                       # Per bank write bursts (Count)
system.mem_ctrl.dram.perBankRdBursts::4        221642                       # Per bank write bursts (Count)
system.mem_ctrl.dram.perBankRdBursts::5         51395                       # Per bank write bursts (Count)
system.mem_ctrl.dram.perBankRdBursts::6         23330                       # Per bank write bursts (Count)
system.mem_ctrl.dram.perBankRdBursts::7         12322                       # Per bank write bursts (Count)
system.mem_ctrl.dram.perBankRdBursts::8        119352                       # Per bank write bursts (Count)
system.mem_ctrl.dram.perBankRdBursts::9        681366                       # Per bank write bursts (Count)
system.mem_ctrl.dram.perBankRdBursts::10       139152                       # Per bank write bursts (Count)
system.mem_ctrl.dram.perBankRdBursts::11       338205                       # Per bank write bursts (Count)
system.mem_ctrl.dram.perBankRdBursts::12        12471                       # Per bank write bursts (Count)
system.mem_ctrl.dram.perBankRdBursts::13       497774                       # Per bank write bursts (Count)
system.mem_ctrl.dram.perBankRdBursts::14        60984                       # Per bank write bursts (Count)
system.mem_ctrl.dram.perBankRdBursts::15        94597                       # Per bank write bursts (Count)
system.mem_ctrl.dram.perBankWrBursts::0          2269                       # Per bank write bursts (Count)
system.mem_ctrl.dram.perBankWrBursts::1          7052                       # Per bank write bursts (Count)
system.mem_ctrl.dram.perBankWrBursts::2          1097                       # Per bank write bursts (Count)
system.mem_ctrl.dram.perBankWrBursts::3           737                       # Per bank write bursts (Count)
system.mem_ctrl.dram.perBankWrBursts::4           641                       # Per bank write bursts (Count)
system.mem_ctrl.dram.perBankWrBursts::5          1744                       # Per bank write bursts (Count)
system.mem_ctrl.dram.perBankWrBursts::6           539                       # Per bank write bursts (Count)
system.mem_ctrl.dram.perBankWrBursts::7           388                       # Per bank write bursts (Count)
system.mem_ctrl.dram.perBankWrBursts::8           434                       # Per bank write bursts (Count)
system.mem_ctrl.dram.perBankWrBursts::9           384                       # Per bank write bursts (Count)
system.mem_ctrl.dram.perBankWrBursts::10          406                       # Per bank write bursts (Count)
system.mem_ctrl.dram.perBankWrBursts::11          408                       # Per bank write bursts (Count)
system.mem_ctrl.dram.perBankWrBursts::12          399                       # Per bank write bursts (Count)
system.mem_ctrl.dram.perBankWrBursts::13          413                       # Per bank write bursts (Count)
system.mem_ctrl.dram.perBankWrBursts::14          613                       # Per bank write bursts (Count)
system.mem_ctrl.dram.perBankWrBursts::15          963                       # Per bank write bursts (Count)
system.mem_ctrl.dram.totQLat              53933139054                       # Total ticks spent queuing (Tick)
system.mem_ctrl.dram.totBusLat            26791365000                       # Total ticks spent in databus transfers (Tick)
system.mem_ctrl.dram.totMemAccLat        154400757804                       # Total ticks spent from burst creation until serviced by the DRAM (Tick)
system.mem_ctrl.dram.avgQLat                 10065.40                       # Average queueing delay per DRAM burst ((Tick/Count))
system.mem_ctrl.dram.avgBusLat                5000.00                       # Average bus latency per DRAM burst ((Tick/Count))
system.mem_ctrl.dram.avgMemAccLat            28815.40                       # Average memory access latency per DRAM burst ((Tick/Count))
system.mem_ctrl.dram.readRowHits              4036005                       # Number of row buffer hits during reads (Count)
system.mem_ctrl.dram.writeRowHits               16379                       # Number of row buffer hits during writes (Count)
system.mem_ctrl.dram.readRowHitRate             75.32                       # Row buffer hit rate for reads (Ratio)
system.mem_ctrl.dram.writeRowHitRate            88.60                       # Row buffer hit rate for writes (Ratio)
system.mem_ctrl.dram.bytesPerActivate::samples      1324375                       # Bytes accessed per row activation (Byte)
system.mem_ctrl.dram.bytesPerActivate::mean   259.830359                       # Bytes accessed per row activation (Byte)
system.mem_ctrl.dram.bytesPerActivate::gmean   162.885036                       # Bytes accessed per row activation (Byte)
system.mem_ctrl.dram.bytesPerActivate::stdev   278.843114                       # Bytes accessed per row activation (Byte)
system.mem_ctrl.dram.bytesPerActivate::0-127       507337     38.31%     38.31% # Bytes accessed per row activation (Byte)
system.mem_ctrl.dram.bytesPerActivate::128-255       386545     29.19%     67.49% # Bytes accessed per row activation (Byte)
system.mem_ctrl.dram.bytesPerActivate::256-383       131333      9.92%     77.41% # Bytes accessed per row activation (Byte)
system.mem_ctrl.dram.bytesPerActivate::384-511        65486      4.94%     82.36% # Bytes accessed per row activation (Byte)
system.mem_ctrl.dram.bytesPerActivate::512-639        50543      3.82%     86.17% # Bytes accessed per row activation (Byte)
system.mem_ctrl.dram.bytesPerActivate::640-767        40653      3.07%     89.24% # Bytes accessed per row activation (Byte)
system.mem_ctrl.dram.bytesPerActivate::768-895        48347      3.65%     92.89% # Bytes accessed per row activation (Byte)
system.mem_ctrl.dram.bytesPerActivate::896-1023        18087      1.37%     94.26% # Bytes accessed per row activation (Byte)
system.mem_ctrl.dram.bytesPerActivate::1024-1151        76044      5.74%    100.00% # Bytes accessed per row activation (Byte)
system.mem_ctrl.dram.bytesPerActivate::total      1324375                       # Bytes accessed per row activation (Byte)
system.mem_ctrl.dram.dramBytesRead          342929472                       # Total bytes read (Byte)
system.mem_ctrl.dram.dramBytesWritten         1183168                       # Total bytes written (Byte)
system.mem_ctrl.dram.avgRdBW               389.459196                       # Average DRAM read bandwidth in MiBytes/s ((Byte/Second))
system.mem_ctrl.dram.avgWrBW                 1.343704                       # Average DRAM write bandwidth in MiBytes/s ((Byte/Second))
system.mem_ctrl.dram.peakBW                  12800.00                       # Theoretical peak bandwidth in MiByte/s ((Byte/Second))
system.mem_ctrl.dram.busUtil                     3.05                       # Data bus utilization in percentage (Ratio)
system.mem_ctrl.dram.busUtilRead                 3.04                       # Data bus utilization in percentage for reads (Ratio)
system.mem_ctrl.dram.busUtilWrite                0.01                       # Data bus utilization in percentage for writes (Ratio)
system.mem_ctrl.dram.pageHitRate                75.37                       # Row buffer hit rate, read and write combined (Ratio)
system.mem_ctrl.dram.power_state.pwrStateResidencyTicks::UNDEFINED 880527346266                       # Cumulative time (in ticks) in various power states (Tick)
system.mem_ctrl.dram.rank0.actEnergy       6071363340                       # Energy for activate commands per rank (pJ) (Joule)
system.mem_ctrl.dram.rank0.preEnergy       3227006145                       # Energy for precharge commands per rank (pJ) (Joule)
system.mem_ctrl.dram.rank0.readEnergy     24378616080                       # Energy for read commands per rank (pJ) (Joule)
system.mem_ctrl.dram.rank0.writeEnergy       75517740                       # Energy for write commands per rank (pJ) (Joule)
system.mem_ctrl.dram.rank0.refreshEnergy 69507793680.000015                       # Energy for refresh commands per rank (pJ) (Joule)
system.mem_ctrl.dram.rank0.actBackEnergy 388669131330                       # Energy for active background per rank (pJ) (Joule)
system.mem_ctrl.dram.rank0.preBackEnergy  10822179840                       # Energy for precharge background per rank (pJ) (Joule)
system.mem_ctrl.dram.rank0.actPowerDownEnergy            0                       # Energy for active power-down per rank (pJ) (Joule)
system.mem_ctrl.dram.rank0.prePowerDownEnergy            0                       # Energy for precharge power-down per rank (pJ) (Joule)
system.mem_ctrl.dram.rank0.selfRefreshEnergy            0                       # Energy for self refresh per rank (pJ) (Joule)
system.mem_ctrl.dram.rank0.totalEnergy   502751608155                       # Total energy per rank (pJ) (Joule)
system.mem_ctrl.dram.rank0.averagePower    570.966490                       # Core power per rank (mW) (Watt)
system.mem_ctrl.dram.rank0.totalIdleTime            0                       # Total Idle time Per DRAM Rank (Tick)
system.mem_ctrl.dram.rank0.pwrStateTime::IDLE  23734910852                       # Time in different power states (Tick)
system.mem_ctrl.dram.rank0.pwrStateTime::REF  29402620000                       # Time in different power states (Tick)
system.mem_ctrl.dram.rank0.pwrStateTime::SREF            0                       # Time in different power states (Tick)
system.mem_ctrl.dram.rank0.pwrStateTime::PRE_PDN            0                       # Time in different power states (Tick)
system.mem_ctrl.dram.rank0.pwrStateTime::ACT 827389815414                       # Time in different power states (Tick)
system.mem_ctrl.dram.rank0.pwrStateTime::ACT_PDN            0                       # Time in different power states (Tick)
system.mem_ctrl.dram.rank1.actEnergy       3384681300                       # Energy for activate commands per rank (pJ) (Joule)
system.mem_ctrl.dram.rank1.preEnergy       1798996980                       # Energy for precharge commands per rank (pJ) (Joule)
system.mem_ctrl.dram.rank1.readEnergy     13879453140                       # Energy for read commands per rank (pJ) (Joule)
system.mem_ctrl.dram.rank1.writeEnergy       20984400                       # Energy for write commands per rank (pJ) (Joule)
system.mem_ctrl.dram.rank1.refreshEnergy 69507793680.000015                       # Energy for refresh commands per rank (pJ) (Joule)
system.mem_ctrl.dram.rank1.actBackEnergy 340309187910                       # Energy for active background per rank (pJ) (Joule)
system.mem_ctrl.dram.rank1.preBackEnergy  51546342720                       # Energy for precharge background per rank (pJ) (Joule)
system.mem_ctrl.dram.rank1.actPowerDownEnergy            0                       # Energy for active power-down per rank (pJ) (Joule)
system.mem_ctrl.dram.rank1.prePowerDownEnergy            0                       # Energy for precharge power-down per rank (pJ) (Joule)
system.mem_ctrl.dram.rank1.selfRefreshEnergy            0                       # Energy for self refresh per rank (pJ) (Joule)
system.mem_ctrl.dram.rank1.totalEnergy   480447440130                       # Total energy per rank (pJ) (Joule)
system.mem_ctrl.dram.rank1.averagePower    545.636024                       # Core power per rank (mW) (Watt)
system.mem_ctrl.dram.rank1.totalIdleTime            0                       # Total Idle time Per DRAM Rank (Tick)
system.mem_ctrl.dram.rank1.pwrStateTime::IDLE 128849222615                       # Time in different power states (Tick)
system.mem_ctrl.dram.rank1.pwrStateTime::REF  29402620000                       # Time in different power states (Tick)
system.mem_ctrl.dram.rank1.pwrStateTime::SREF            0                       # Time in different power states (Tick)
system.mem_ctrl.dram.rank1.pwrStateTime::PRE_PDN            0                       # Time in different power states (Tick)
system.mem_ctrl.dram.rank1.pwrStateTime::ACT 722275503651                       # Time in different power states (Tick)
system.mem_ctrl.dram.rank1.pwrStateTime::ACT_PDN            0                       # Time in different power states (Tick)
system.mem_ctrl.power_state.pwrStateResidencyTicks::UNDEFINED 880527346266                       # Cumulative time (in ticks) in various power states (Tick)
system.membus.transDist::ReadReq              5592080                       # Transaction distribution (Count)
system.membus.transDist::ReadResp             5592081                       # Transaction distribution (Count)
system.membus.transDist::WriteReq             1386057                       # Transaction distribution (Count)
system.membus.transDist::WriteResp            1386057                       # Transaction distribution (Count)
system.membus.transDist::LockedRMWReadReq         1625                       # Transaction distribution (Count)
system.membus.transDist::LockedRMWReadResp         1625                       # Transaction distribution (Count)
system.membus.transDist::LockedRMWWriteReq         1625                       # Transaction distribution (Count)
system.membus.transDist::LockedRMWWriteResp         1625                       # Transaction distribution (Count)
system.membus.pktCount_system.cpu.fetch1.icache_port::system.mem_ctrl.port      6002648                       # Packet count per connected requestor and responder (Count)
system.membus.pktCount_system.cpu.fetch1.icache_port::total      6002648                       # Packet count per connected requestor and responder (Count)
system.membus.pktCount_system.cpu.execute.dcache_port::system.mem_ctrl.port      7960127                       # Packet count per connected requestor and responder (Count)
system.membus.pktCount_system.cpu.execute.dcache_port::total      7960127                       # Packet count per connected requestor and responder (Count)
system.membus.pktCount::total                13962775                       # Packet count per connected requestor and responder (Count)
system.membus.pktSize_system.cpu.fetch1.icache_port::system.mem_ctrl.port    192084736                       # Cumulative packet size per connected requestor and responder (Byte)
system.membus.pktSize_system.cpu.fetch1.icache_port::total    192084736                       # Cumulative packet size per connected requestor and responder (Byte)
system.membus.pktSize_system.cpu.execute.dcache_port::system.mem_ctrl.port     24210360                       # Cumulative packet size per connected requestor and responder (Byte)
system.membus.pktSize_system.cpu.execute.dcache_port::total     24210360                       # Cumulative packet size per connected requestor and responder (Byte)
system.membus.pktSize::total                216295096                       # Cumulative packet size per connected requestor and responder (Byte)
system.membus.snoops                                0                       # Total snoops (Count)
system.membus.snoopTraffic                          0                       # Total snoop traffic (Byte)
system.membus.snoopFanout::samples            6981387                       # Request fanout histogram (Count)
system.membus.snoopFanout::mean                     0                       # Request fanout histogram (Count)
system.membus.snoopFanout::stdev                    0                       # Request fanout histogram (Count)
system.membus.snoopFanout::underflows               0      0.00%      0.00% # Request fanout histogram (Count)
system.membus.snoopFanout::0                  6981387    100.00%    100.00% # Request fanout histogram (Count)
system.membus.snoopFanout::1                        0      0.00%    100.00% # Request fanout histogram (Count)
system.membus.snoopFanout::overflows                0      0.00%    100.00% # Request fanout histogram (Count)
system.membus.snoopFanout::min_value                0                       # Request fanout histogram (Count)
system.membus.snoopFanout::max_value                0                       # Request fanout histogram (Count)
system.membus.snoopFanout::total              6981387                       # Request fanout histogram (Count)
system.membus.power_state.pwrStateResidencyTicks::UNDEFINED 880527346266                       # Cumulative time (in ticks) in various power states (Tick)
system.membus.reqLayer2.occupancy        111584796977                       # Layer occupancy (ticks) (Tick)
system.membus.reqLayer2.utilization               0.1                       # Layer utilization (Ratio)
system.membus.respLayer1.occupancy       204462038858                       # Layer occupancy (ticks) (Tick)
system.membus.respLayer1.utilization              0.2                       # Layer utilization (Ratio)
system.membus.respLayer2.occupancy        95495308467                       # Layer occupancy (ticks) (Tick)
system.membus.respLayer2.utilization              0.1                       # Layer utilization (Ratio)
system.membus.snoop_filter.totRequests              0                       # Total number of requests made to the snoop filter. (Count)
system.membus.snoop_filter.hitSingleRequests            0                       # Number of requests hitting in the snoop filter with a single holder of the requested data. (Count)
system.membus.snoop_filter.hitMultiRequests            0                       # Number of requests hitting in the snoop filter with multiple (>1) holders of the requested data. (Count)
system.membus.snoop_filter.totSnoops                0                       # Total number of snoops made to the snoop filter. (Count)
system.membus.snoop_filter.hitSingleSnoops            0                       # Number of snoops hitting in the snoop filter with a single holder of the requested data. (Count)
system.membus.snoop_filter.hitMultiSnoops            0                       # Number of snoops hitting in the snoop filter with multiple (>1) holders of the requested data. (Count)
system.workload.inst.arm                            0                       # number of arm instructions executed (Count)
system.workload.inst.quiesce                        0                       # number of quiesce instructions executed (Count)
system.cpu.idleCycles                        23211735                       # Total number of cycles that the object has spent stopped (Unspecified)
system.cpu.tickCycles                        42829467                       # Number of cycles that the object actually ticked (Unspecified)

---------- End Simulation Statistics   ----------
