
---------- Begin Simulation Statistics ----------
simSeconds                                   3.092998                       # Number of seconds simulated (Second)
simTicks                                 3092998033116                       # Number of ticks simulated (Tick)
finalTick                                3092998033116                       # Number of ticks from beginning of simulation (restored from checkpoints and never reset) (Tick)
simFreq                                  1000000000000                       # The number of ticks per simulated second ((Tick/Second))
hostSeconds                                    209.07                       # Real time elapsed on the host (Second)
hostTickRate                              14793767212                       # The number of ticks simulated per host second (ticks/s) ((Tick/Second))
hostMemory                                    8618300                       # Number of bytes of host memory used (Byte)
simInsts                                     30572809                       # Number of instructions simulated (Count)
simOps                                       52733026                       # Number of ops (including micro ops) simulated (Count)
hostInstRate                                   146227                       # Simulator instruction rate (inst/s) ((Count/Second))
hostOpRate                                     252218                       # Simulator op (including micro ops) rate (op/s) ((Count/Second))
system.clk_domain.clock                         13333                       # Clock period in ticks (Tick)
system.clk_domain.voltage_domain.voltage            1                       # Voltage in Volts (Volt)
system.cpu.numCycles                        231980652                       # Number of cpu cycles simulated (Cycle)
system.cpu.cpi                               7.587810                       # CPI: cycles per instruction (core level) ((Cycle/Count))
system.cpu.ipc                               0.131790                       # IPC: instructions per cycle (core level) ((Count/Cycle))
system.cpu.numWorkItemsStarted                      0                       # Number of work items this cpu started (Count)
system.cpu.numWorkItemsCompleted                    0                       # Number of work items this cpu completed (Count)
system.cpu.branchPred.lookups_0::NoBranch            0                       # Number of BP lookups (Count)
system.cpu.branchPred.lookups_0::Return             0                       # Number of BP lookups (Count)
system.cpu.branchPred.lookups_0::CallDirect            0                       # Number of BP lookups (Count)
system.cpu.branchPred.lookups_0::CallIndirect            0                       # Number of BP lookups (Count)
system.cpu.branchPred.lookups_0::DirectCond            0                       # Number of BP lookups (Count)
system.cpu.branchPred.lookups_0::DirectUncond            0                       # Number of BP lookups (Count)
system.cpu.branchPred.lookups_0::IndirectCond            0                       # Number of BP lookups (Count)
system.cpu.branchPred.lookups_0::IndirectUncond            0                       # Number of BP lookups (Count)
system.cpu.branchPred.lookups_0::total              0                       # Number of BP lookups (Count)
system.cpu.branchPred.squashes_0::NoBranch            0                       # Number of branches that got squashed (completely removed) as an earlier branch was mispredicted. (Count)
system.cpu.branchPred.squashes_0::Return            0                       # Number of branches that got squashed (completely removed) as an earlier branch was mispredicted. (Count)
system.cpu.branchPred.squashes_0::CallDirect            0                       # Number of branches that got squashed (completely removed) as an earlier branch was mispredicted. (Count)
system.cpu.branchPred.squashes_0::CallIndirect            0                       # Number of branches that got squashed (completely removed) as an earlier branch was mispredicted. (Count)
system.cpu.branchPred.squashes_0::DirectCond            0                       # Number of branches that got squashed (completely removed) as an earlier branch was mispredicted. (Count)
system.cpu.branchPred.squashes_0::DirectUncond            0                       # Number of branches that got squashed (completely removed) as an earlier branch was mispredicted. (Count)
system.cpu.branchPred.squashes_0::IndirectCond            0                       # Number of branches that got squashed (completely removed) as an earlier branch was mispredicted. (Count)
system.cpu.branchPred.squashes_0::IndirectUncond            0                       # Number of branches that got squashed (completely removed) as an earlier branch was mispredicted. (Count)
system.cpu.branchPred.squashes_0::total             0                       # Number of branches that got squashed (completely removed) as an earlier branch was mispredicted. (Count)
system.cpu.branchPred.corrected_0::NoBranch            0                       # Number of branches that got corrected but not yet commited. Branches get corrected by decode or after execute. Also a branch misprediction can be detected out-of-order. Therefore, a corrected branch might not end up beeing committed in case an even earlier branch was mispredicted (Count)
system.cpu.branchPred.corrected_0::Return            0                       # Number of branches that got corrected but not yet commited. Branches get corrected by decode or after execute. Also a branch misprediction can be detected out-of-order. Therefore, a corrected branch might not end up beeing committed in case an even earlier branch was mispredicted (Count)
system.cpu.branchPred.corrected_0::CallDirect            0                       # Number of branches that got corrected but not yet commited. Branches get corrected by decode or after execute. Also a branch misprediction can be detected out-of-order. Therefore, a corrected branch might not end up beeing committed in case an even earlier branch was mispredicted (Count)
system.cpu.branchPred.corrected_0::CallIndirect            0                       # Number of branches that got corrected but not yet commited. Branches get corrected by decode or after execute. Also a branch misprediction can be detected out-of-order. Therefore, a corrected branch might not end up beeing committed in case an even earlier branch was mispredicted (Count)
system.cpu.branchPred.corrected_0::DirectCond            0                       # Number of branches that got corrected but not yet commited. Branches get corrected by decode or after execute. Also a branch misprediction can be detected out-of-order. Therefore, a corrected branch might not end up beeing committed in case an even earlier branch was mispredicted (Count)
system.cpu.branchPred.corrected_0::DirectUncond            0                       # Number of branches that got corrected but not yet commited. Branches get corrected by decode or after execute. Also a branch misprediction can be detected out-of-order. Therefore, a corrected branch might not end up beeing committed in case an even earlier branch was mispredicted (Count)
system.cpu.branchPred.corrected_0::IndirectCond            0                       # Number of branches that got corrected but not yet commited. Branches get corrected by decode or after execute. Also a branch misprediction can be detected out-of-order. Therefore, a corrected branch might not end up beeing committed in case an even earlier branch was mispredicted (Count)
system.cpu.branchPred.corrected_0::IndirectUncond            0                       # Number of branches that got corrected but not yet commited. Branches get corrected by decode or after execute. Also a branch misprediction can be detected out-of-order. Therefore, a corrected branch might not end up beeing committed in case an even earlier branch was mispredicted (Count)
system.cpu.branchPred.corrected_0::total            0                       # Number of branches that got corrected but not yet commited. Branches get corrected by decode or after execute. Also a branch misprediction can be detected out-of-order. Therefore, a corrected branch might not end up beeing committed in case an even earlier branch was mispredicted (Count)
system.cpu.branchPred.earlyResteers_0::NoBranch            0                       # Number of branches that got redirected after decode. (Count)
system.cpu.branchPred.earlyResteers_0::Return            0                       # Number of branches that got redirected after decode. (Count)
system.cpu.branchPred.earlyResteers_0::CallDirect            0                       # Number of branches that got redirected after decode. (Count)
system.cpu.branchPred.earlyResteers_0::CallIndirect            0                       # Number of branches that got redirected after decode. (Count)
system.cpu.branchPred.earlyResteers_0::DirectCond            0                       # Number of branches that got redirected after decode. (Count)
system.cpu.branchPred.earlyResteers_0::DirectUncond            0                       # Number of branches that got redirected after decode. (Count)
system.cpu.branchPred.earlyResteers_0::IndirectCond            0                       # Number of branches that got redirected after decode. (Count)
system.cpu.branchPred.earlyResteers_0::IndirectUncond            0                       # Number of branches that got redirected after decode. (Count)
system.cpu.branchPred.earlyResteers_0::total            0                       # Number of branches that got redirected after decode. (Count)
system.cpu.branchPred.committed_0::NoBranch            0                       # Number of branches finally committed  (Count)
system.cpu.branchPred.committed_0::Return            0                       # Number of branches finally committed  (Count)
system.cpu.branchPred.committed_0::CallDirect            0                       # Number of branches finally committed  (Count)
system.cpu.branchPred.committed_0::CallIndirect            0                       # Number of branches finally committed  (Count)
system.cpu.branchPred.committed_0::DirectCond            0                       # Number of branches finally committed  (Count)
system.cpu.branchPred.committed_0::DirectUncond            0                       # Number of branches finally committed  (Count)
system.cpu.branchPred.committed_0::IndirectCond            0                       # Number of branches finally committed  (Count)
system.cpu.branchPred.committed_0::IndirectUncond            0                       # Number of branches finally committed  (Count)
system.cpu.branchPred.committed_0::total            0                       # Number of branches finally committed  (Count)
system.cpu.branchPred.mispredicted_0::NoBranch            0                       # Number of committed branches that were mispredicted. (Count)
system.cpu.branchPred.mispredicted_0::Return            0                       # Number of committed branches that were mispredicted. (Count)
system.cpu.branchPred.mispredicted_0::CallDirect            0                       # Number of committed branches that were mispredicted. (Count)
system.cpu.branchPred.mispredicted_0::CallIndirect            0                       # Number of committed branches that were mispredicted. (Count)
system.cpu.branchPred.mispredicted_0::DirectCond            0                       # Number of committed branches that were mispredicted. (Count)
system.cpu.branchPred.mispredicted_0::DirectUncond            0                       # Number of committed branches that were mispredicted. (Count)
system.cpu.branchPred.mispredicted_0::IndirectCond            0                       # Number of committed branches that were mispredicted. (Count)
system.cpu.branchPred.mispredicted_0::IndirectUncond            0                       # Number of committed branches that were mispredicted. (Count)
system.cpu.branchPred.mispredicted_0::total            0                       # Number of committed branches that were mispredicted. (Count)
system.cpu.branchPred.targetProvider_0::NoTarget            0                       # The component providing the target for taken branches (Count)
system.cpu.branchPred.targetProvider_0::BTB            0                       # The component providing the target for taken branches (Count)
system.cpu.branchPred.targetProvider_0::RAS            0                       # The component providing the target for taken branches (Count)
system.cpu.branchPred.targetProvider_0::Indirect            0                       # The component providing the target for taken branches (Count)
system.cpu.branchPred.targetProvider_0::total            0                       # The component providing the target for taken branches (Count)
system.cpu.branchPred.targetWrong_0::NoBranch            0                       # Number of branches where the target was incorrect or not available at prediction time. (Count)
system.cpu.branchPred.targetWrong_0::Return            0                       # Number of branches where the target was incorrect or not available at prediction time. (Count)
system.cpu.branchPred.targetWrong_0::CallDirect            0                       # Number of branches where the target was incorrect or not available at prediction time. (Count)
system.cpu.branchPred.targetWrong_0::CallIndirect            0                       # Number of branches where the target was incorrect or not available at prediction time. (Count)
system.cpu.branchPred.targetWrong_0::DirectCond            0                       # Number of branches where the target was incorrect or not available at prediction time. (Count)
system.cpu.branchPred.targetWrong_0::DirectUncond            0                       # Number of branches where the target was incorrect or not available at prediction time. (Count)
system.cpu.branchPred.targetWrong_0::IndirectCond            0                       # Number of branches where the target was incorrect or not available at prediction time. (Count)
system.cpu.branchPred.targetWrong_0::IndirectUncond            0                       # Number of branches where the target was incorrect or not available at prediction time. (Count)
system.cpu.branchPred.targetWrong_0::total            0                       # Number of branches where the target was incorrect or not available at prediction time. (Count)
system.cpu.branchPred.condPredicted                 0                       # Number of conditional branches predicted (Count)
system.cpu.branchPred.condPredictedTaken            0                       # Number of conditional branches predicted as taken (Count)
system.cpu.branchPred.condIncorrect                 0                       # Number of conditional branches incorrect (Count)
system.cpu.branchPred.predTakenBTBMiss              0                       # Number of branches predicted taken but missed in BTB (Count)
system.cpu.branchPred.NotTakenMispredicted            0                       # Number branches predicted 'not taken' but turned out to be taken (Count)
system.cpu.branchPred.TakenMispredicted             0                       # Number branches predicted taken but are actually not taken (Count)
system.cpu.branchPred.BTBLookups                    0                       # Number of BTB lookups (Count)
system.cpu.branchPred.BTBUpdates                    0                       # Number of BTB updates (Count)
system.cpu.branchPred.BTBHits                       0                       # Number of BTB hits (Count)
system.cpu.branchPred.BTBHitRatio                 nan                       # BTB Hit Ratio (Ratio)
system.cpu.branchPred.BTBMispredicted               0                       # Number BTB mispredictions. No target found or target wrong (Count)
system.cpu.branchPred.indirectLookups               0                       # Number of indirect predictor lookups. (Count)
system.cpu.branchPred.indirectHits                  0                       # Number of indirect target hits. (Count)
system.cpu.branchPred.indirectMisses                0                       # Number of indirect misses. (Count)
system.cpu.branchPred.indirectMispredicted            0                       # Number of mispredicted indirect branches. (Count)
system.cpu.branchPred.btb.lookups::NoBranch            0                       # Number of BTB lookups (Count)
system.cpu.branchPred.btb.lookups::Return            0                       # Number of BTB lookups (Count)
system.cpu.branchPred.btb.lookups::CallDirect            0                       # Number of BTB lookups (Count)
system.cpu.branchPred.btb.lookups::CallIndirect            0                       # Number of BTB lookups (Count)
system.cpu.branchPred.btb.lookups::DirectCond            0                       # Number of BTB lookups (Count)
system.cpu.branchPred.btb.lookups::DirectUncond            0                       # Number of BTB lookups (Count)
system.cpu.branchPred.btb.lookups::IndirectCond            0                       # Number of BTB lookups (Count)
system.cpu.branchPred.btb.lookups::IndirectUncond            0                       # Number of BTB lookups (Count)
system.cpu.branchPred.btb.lookups::total            0                       # Number of BTB lookups (Count)
system.cpu.branchPred.btb.misses::NoBranch            0                       # Number of BTB misses (Count)
system.cpu.branchPred.btb.misses::Return            0                       # Number of BTB misses (Count)
system.cpu.branchPred.btb.misses::CallDirect            0                       # Number of BTB misses (Count)
system.cpu.branchPred.btb.misses::CallIndirect            0                       # Number of BTB misses (Count)
system.cpu.branchPred.btb.misses::DirectCond            0                       # Number of BTB misses (Count)
system.cpu.branchPred.btb.misses::DirectUncond            0                       # Number of BTB misses (Count)
system.cpu.branchPred.btb.misses::IndirectCond            0                       # Number of BTB misses (Count)
system.cpu.branchPred.btb.misses::IndirectUncond            0                       # Number of BTB misses (Count)
system.cpu.branchPred.btb.misses::total             0                       # Number of BTB misses (Count)
system.cpu.branchPred.btb.updates::NoBranch            0                       # Number of BTB updates (Count)
system.cpu.branchPred.btb.updates::Return            0                       # Number of BTB updates (Count)
system.cpu.branchPred.btb.updates::CallDirect            0                       # Number of BTB updates (Count)
system.cpu.branchPred.btb.updates::CallIndirect            0                       # Number of BTB updates (Count)
system.cpu.branchPred.btb.updates::DirectCond            0                       # Number of BTB updates (Count)
system.cpu.branchPred.btb.updates::DirectUncond            0                       # Number of BTB updates (Count)
system.cpu.branchPred.btb.updates::IndirectCond            0                       # Number of BTB updates (Count)
system.cpu.branchPred.btb.updates::IndirectUncond            0                       # Number of BTB updates (Count)
system.cpu.branchPred.btb.updates::total            0                       # Number of BTB updates (Count)
system.cpu.branchPred.btb.mispredict::NoBranch            0                       # Number of BTB mispredictions. No target found or target wrong. (Count)
system.cpu.branchPred.btb.mispredict::Return            0                       # Number of BTB mispredictions. No target found or target wrong. (Count)
system.cpu.branchPred.btb.mispredict::CallDirect            0                       # Number of BTB mispredictions. No target found or target wrong. (Count)
system.cpu.branchPred.btb.mispredict::CallIndirect            0                       # Number of BTB mispredictions. No target found or target wrong. (Count)
system.cpu.branchPred.btb.mispredict::DirectCond            0                       # Number of BTB mispredictions. No target found or target wrong. (Count)
system.cpu.branchPred.btb.mispredict::DirectUncond            0                       # Number of BTB mispredictions. No target found or target wrong. (Count)
system.cpu.branchPred.btb.mispredict::IndirectCond            0                       # Number of BTB mispredictions. No target found or target wrong. (Count)
system.cpu.branchPred.btb.mispredict::IndirectUncond            0                       # Number of BTB mispredictions. No target found or target wrong. (Count)
system.cpu.branchPred.btb.mispredict::total            0                       # Number of BTB mispredictions. No target found or target wrong. (Count)
system.cpu.branchPred.btb.power_state.pwrStateResidencyTicks::UNDEFINED 3092998033116                       # Cumulative time (in ticks) in various power states (Tick)
system.cpu.branchPred.indirectBranchPred.lookups            0                       # Number of lookups (Count)
system.cpu.branchPred.indirectBranchPred.hits            0                       # Number of hits of a tag (Count)
system.cpu.branchPred.indirectBranchPred.misses            0                       # Number of misses (Count)
system.cpu.branchPred.indirectBranchPred.targetRecords            0                       # Number of targets that where recorded/installed in the cache (Count)
system.cpu.branchPred.indirectBranchPred.indirectRecords            0                       # Number of indirect branches/calls recorded in the indirect hist (Count)
system.cpu.branchPred.indirectBranchPred.speculativeOverflows            0                       # Number of times more than the allowed capacity for speculative branches/calls where in flight and destroy the path history (Count)
system.cpu.branchPred.ras.pushes                    0                       # Number of times a PC was pushed onto the RAS (Count)
system.cpu.branchPred.ras.pops                      0                       # Number of times a PC was poped from the RAS (Count)
system.cpu.branchPred.ras.squashes                  0                       # Number of times the stack operation was squashed due to wrong speculation. (Count)
system.cpu.branchPred.ras.used                      0                       # Number of times the RAS is the provider (Count)
system.cpu.branchPred.ras.correct                   0                       # Number of times the RAS is the provider and the prediction is correct (Count)
system.cpu.branchPred.ras.incorrect                 0                       # Number of times the RAS is the provider and the prediction is wrong (Count)
system.cpu.commitStats0.numInsts             30572809                       # Number of instructions committed (thread level) (Count)
system.cpu.commitStats0.numOps               52733026                       # Number of ops (including micro ops) committed (thread level) (Count)
system.cpu.commitStats0.numInstsNotNOP              0                       # Number of instructions committed excluding NOPs or prefetches (Count)
system.cpu.commitStats0.numOpsNotNOP                0                       # Number of Ops (including micro ops) Simulated (Count)
system.cpu.commitStats0.cpi                  7.587810                       # CPI: cycles per instruction (thread level) ((Cycle/Count))
system.cpu.commitStats0.ipc                  0.131790                       # IPC: instructions per cycle (thread level) ((Count/Cycle))
system.cpu.commitStats0.numMemRefs                  0                       # Number of memory references committed (Count)
system.cpu.commitStats0.numFpInsts                  0                       # Number of float instructions (Count)
system.cpu.commitStats0.numIntInsts                 0                       # Number of integer instructions (Count)
system.cpu.commitStats0.numLoadInsts                0                       # Number of load instructions (Count)
system.cpu.commitStats0.numStoreInsts               0                       # Number of store instructions (Count)
system.cpu.commitStats0.numVecInsts                 0                       # Number of vector instructions (Count)
system.cpu.commitStats0.committedInstType::No_OpClass       685731      1.30%      1.30% # Class of committed instruction. (Count)
system.cpu.commitStats0.committedInstType::IntAlu     41613050     78.91%     80.21% # Class of committed instruction. (Count)
system.cpu.commitStats0.committedInstType::IntMult          127      0.00%     80.21% # Class of committed instruction. (Count)
system.cpu.commitStats0.committedInstType::IntDiv        41000      0.08%     80.29% # Class of committed instruction. (Count)
system.cpu.commitStats0.committedInstType::FloatAdd        29979      0.06%     80.35% # Class of committed instruction. (Count)
system.cpu.commitStats0.committedInstType::FloatCmp            0      0.00%     80.35% # Class of committed instruction. (Count)
system.cpu.commitStats0.committedInstType::FloatCvt         1264      0.00%     80.35% # Class of committed instruction. (Count)
system.cpu.commitStats0.committedInstType::FloatMult            0      0.00%     80.35% # Class of committed instruction. (Count)
system.cpu.commitStats0.committedInstType::FloatMultAcc            0      0.00%     80.35% # Class of committed instruction. (Count)
system.cpu.commitStats0.committedInstType::FloatDiv            0      0.00%     80.35% # Class of committed instruction. (Count)
system.cpu.commitStats0.committedInstType::FloatMisc            0      0.00%     80.35% # Class of committed instruction. (Count)
system.cpu.commitStats0.committedInstType::FloatSqrt            0      0.00%     80.35% # Class of committed instruction. (Count)
system.cpu.commitStats0.committedInstType::SimdAdd         6400      0.01%     80.36% # Class of committed instruction. (Count)
system.cpu.commitStats0.committedInstType::SimdAddAcc            0      0.00%     80.36% # Class of committed instruction. (Count)
system.cpu.commitStats0.committedInstType::SimdAlu       111184      0.21%     80.57% # Class of committed instruction. (Count)
system.cpu.commitStats0.committedInstType::SimdCmp            6      0.00%     80.57% # Class of committed instruction. (Count)
system.cpu.commitStats0.committedInstType::SimdCvt        13280      0.03%     80.60% # Class of committed instruction. (Count)
system.cpu.commitStats0.committedInstType::SimdMisc       150053      0.28%     80.88% # Class of committed instruction. (Count)
system.cpu.commitStats0.committedInstType::SimdMult            0      0.00%     80.88% # Class of committed instruction. (Count)
system.cpu.commitStats0.committedInstType::SimdMultAcc            0      0.00%     80.88% # Class of committed instruction. (Count)
system.cpu.commitStats0.committedInstType::SimdMatMultAcc            0      0.00%     80.88% # Class of committed instruction. (Count)
system.cpu.commitStats0.committedInstType::SimdShift         1636      0.00%     80.89% # Class of committed instruction. (Count)
system.cpu.commitStats0.committedInstType::SimdShiftAcc            0      0.00%     80.89% # Class of committed instruction. (Count)
system.cpu.commitStats0.committedInstType::SimdDiv            0      0.00%     80.89% # Class of committed instruction. (Count)
system.cpu.commitStats0.committedInstType::SimdSqrt            0      0.00%     80.89% # Class of committed instruction. (Count)
system.cpu.commitStats0.committedInstType::SimdFloatAdd           15      0.00%     80.89% # Class of committed instruction. (Count)
system.cpu.commitStats0.committedInstType::SimdFloatAlu            0      0.00%     80.89% # Class of committed instruction. (Count)
system.cpu.commitStats0.committedInstType::SimdFloatCmp            0      0.00%     80.89% # Class of committed instruction. (Count)
system.cpu.commitStats0.committedInstType::SimdFloatCvt           30      0.00%     80.89% # Class of committed instruction. (Count)
system.cpu.commitStats0.committedInstType::SimdFloatDiv           15      0.00%     80.89% # Class of committed instruction. (Count)
system.cpu.commitStats0.committedInstType::SimdFloatMisc            0      0.00%     80.89% # Class of committed instruction. (Count)
system.cpu.commitStats0.committedInstType::SimdFloatMult            0      0.00%     80.89% # Class of committed instruction. (Count)
system.cpu.commitStats0.committedInstType::SimdFloatMultAcc            0      0.00%     80.89% # Class of committed instruction. (Count)
system.cpu.commitStats0.committedInstType::SimdFloatMatMultAcc            0      0.00%     80.89% # Class of committed instruction. (Count)
system.cpu.commitStats0.committedInstType::SimdFloatSqrt            0      0.00%     80.89% # Class of committed instruction. (Count)
system.cpu.commitStats0.committedInstType::SimdReduceAdd            0      0.00%     80.89% # Class of committed instruction. (Count)
system.cpu.commitStats0.committedInstType::SimdReduceAlu            0      0.00%     80.89% # Class of committed instruction. (Count)
system.cpu.commitStats0.committedInstType::SimdReduceCmp            0      0.00%     80.89% # Class of committed instruction. (Count)
system.cpu.commitStats0.committedInstType::SimdFloatReduceAdd            0      0.00%     80.89% # Class of committed instruction. (Count)
system.cpu.commitStats0.committedInstType::SimdFloatReduceCmp            0      0.00%     80.89% # Class of committed instruction. (Count)
system.cpu.commitStats0.committedInstType::SimdAes            0      0.00%     80.89% # Class of committed instruction. (Count)
system.cpu.commitStats0.committedInstType::SimdAesMix            0      0.00%     80.89% # Class of committed instruction. (Count)
system.cpu.commitStats0.committedInstType::SimdSha1Hash            0      0.00%     80.89% # Class of committed instruction. (Count)
system.cpu.commitStats0.committedInstType::SimdSha1Hash2            0      0.00%     80.89% # Class of committed instruction. (Count)
system.cpu.commitStats0.committedInstType::SimdSha256Hash            0      0.00%     80.89% # Class of committed instruction. (Count)
system.cpu.commitStats0.committedInstType::SimdSha256Hash2            0      0.00%     80.89% # Class of committed instruction. (Count)
system.cpu.commitStats0.committedInstType::SimdShaSigma2            0      0.00%     80.89% # Class of committed instruction. (Count)
system.cpu.commitStats0.committedInstType::SimdShaSigma3            0      0.00%     80.89% # Class of committed instruction. (Count)
system.cpu.commitStats0.committedInstType::SimdPredAlu            0      0.00%     80.89% # Class of committed instruction. (Count)
system.cpu.commitStats0.committedInstType::Matrix            0      0.00%     80.89% # Class of committed instruction. (Count)
system.cpu.commitStats0.committedInstType::MatrixMov            0      0.00%     80.89% # Class of committed instruction. (Count)
system.cpu.commitStats0.committedInstType::MatrixOP            0      0.00%     80.89% # Class of committed instruction. (Count)
system.cpu.commitStats0.committedInstType::MemRead      7021713     13.32%     94.20% # Class of committed instruction. (Count)
system.cpu.commitStats0.committedInstType::MemWrite      2584716      4.90%     99.10% # Class of committed instruction. (Count)
system.cpu.commitStats0.committedInstType::FloatMemRead       195399      0.37%     99.47% # Class of committed instruction. (Count)
system.cpu.commitStats0.committedInstType::FloatMemWrite       277428      0.53%    100.00% # Class of committed instruction. (Count)
system.cpu.commitStats0.committedInstType::IprAccess            0      0.00%    100.00% # Class of committed instruction. (Count)
system.cpu.commitStats0.committedInstType::InstPrefetch            0      0.00%    100.00% # Class of committed instruction. (Count)
system.cpu.commitStats0.committedInstType::SimdUnitStrideLoad            0      0.00%    100.00% # Class of committed instruction. (Count)
system.cpu.commitStats0.committedInstType::SimdUnitStrideStore            0      0.00%    100.00% # Class of committed instruction. (Count)
system.cpu.commitStats0.committedInstType::SimdUnitStrideMaskLoad            0      0.00%    100.00% # Class of committed instruction. (Count)
system.cpu.commitStats0.committedInstType::SimdUnitStrideMaskStore            0      0.00%    100.00% # Class of committed instruction. (Count)
system.cpu.commitStats0.committedInstType::SimdStridedLoad            0      0.00%    100.00% # Class of committed instruction. (Count)
system.cpu.commitStats0.committedInstType::SimdStridedStore            0      0.00%    100.00% # Class of committed instruction. (Count)
system.cpu.commitStats0.committedInstType::SimdIndexedLoad            0      0.00%    100.00% # Class of committed instruction. (Count)
system.cpu.commitStats0.committedInstType::SimdIndexedStore            0      0.00%    100.00% # Class of committed instruction. (Count)
system.cpu.commitStats0.committedInstType::SimdWholeRegisterLoad            0      0.00%    100.00% # Class of committed instruction. (Count)
system.cpu.commitStats0.committedInstType::SimdWholeRegisterStore            0      0.00%    100.00% # Class of committed instruction. (Count)
system.cpu.commitStats0.committedInstType::SimdUnitStrideFaultOnlyFirstLoad            0      0.00%    100.00% # Class of committed instruction. (Count)
system.cpu.commitStats0.committedInstType::SimdUnitStrideSegmentedLoad            0      0.00%    100.00% # Class of committed instruction. (Count)
system.cpu.commitStats0.committedInstType::SimdUnitStrideSegmentedStore            0      0.00%    100.00% # Class of committed instruction. (Count)
system.cpu.commitStats0.committedInstType::SimdExt            0      0.00%    100.00% # Class of committed instruction. (Count)
system.cpu.commitStats0.committedInstType::SimdFloatExt            0      0.00%    100.00% # Class of committed instruction. (Count)
system.cpu.commitStats0.committedInstType::SimdConfig            0      0.00%    100.00% # Class of committed instruction. (Count)
system.cpu.commitStats0.committedInstType::total     52733026                       # Class of committed instruction. (Count)
system.cpu.executeStats0.numInsts                   0                       # Number of executed instructions (Count)
system.cpu.executeStats0.numNop                     0                       # Number of nop insts executed (Count)
system.cpu.executeStats0.numBranches                0                       # Number of branches executed (Count)
system.cpu.executeStats0.numLoadInsts               0                       # Number of load instructions executed (Count)
system.cpu.executeStats0.numStoreInsts              0                       # Number of stores executed (Count)
system.cpu.executeStats0.instRate                   0                       # Inst execution rate ((Count/Cycle))
system.cpu.executeStats0.numFpRegWrites             0                       # Number of times the floating registers were written (Count)
system.cpu.executeStats0.numMemRefs                 0                       # Number of memory refs (Count)
system.cpu.executeStats0.numVecAluAccesses            0                       # Number of vector alu accesses (Count)
system.cpu.executeStats0.numDiscardedOps     13890325                       # Number of ops (including micro ops) which were discarded before commit (Count)
system.cpu.fetch2.intInstructions                  65                       # Number of integer instructions successfully decoded (Count)
system.cpu.fetch2.fpInstructions                    0                       # Number of floating point instructions successfully decoded (Count)
system.cpu.fetch2.vecInstructions                   0                       # Number of SIMD instructions successfully decoded (Count)
system.cpu.fetch2.loadInstructions                  0                       # Number of memory load instructions successfully decoded (Count)
system.cpu.fetch2.storeInstructions                 0                       # Number of memory store instructions successfully decoded (Count)
system.cpu.fetch2.amoInstructions                   0                       # Number of memory atomic instructions successfully decoded (Count)
system.cpu.fetchStats0.numInsts                     0                       # Number of instructions fetched (thread level) (Count)
system.cpu.fetchStats0.numOps                       0                       # Number of ops (including micro ops) fetched (thread level) (Count)
system.cpu.fetchStats0.fetchRate                    0                       # Number of inst fetches per cycle ((Count/Cycle))
system.cpu.fetchStats0.branchRate                   0                       # Number of branch fetches per cycle (Ratio)
system.cpu.fetchStats0.numFetchSuspends             0                       # Number of times Execute suspended instruction fetching (Count)
system.cpu.interrupts.clk_domain.clock         213328                       # Clock period in ticks (Tick)
system.cpu.mmu.dtb.rdAccesses                 8054243                       # TLB accesses on read requests (Count)
system.cpu.mmu.dtb.wrAccesses                 3243934                       # TLB accesses on write requests (Count)
system.cpu.mmu.dtb.rdMisses                      6438                       # TLB misses on read requests (Count)
system.cpu.mmu.dtb.wrMisses                       702                       # TLB misses on write requests (Count)
system.cpu.mmu.dtb.walker.power_state.pwrStateResidencyTicks::UNDEFINED 3092998033116                       # Cumulative time (in ticks) in various power states (Tick)
system.cpu.mmu.itb.rdAccesses                       0                       # TLB accesses on read requests (Count)
system.cpu.mmu.itb.wrAccesses                11396527                       # TLB accesses on write requests (Count)
system.cpu.mmu.itb.rdMisses                         0                       # TLB misses on read requests (Count)
system.cpu.mmu.itb.wrMisses                       516                       # TLB misses on write requests (Count)
system.cpu.mmu.itb.walker.power_state.pwrStateResidencyTicks::UNDEFINED 3092998033116                       # Cumulative time (in ticks) in various power states (Tick)
system.cpu.power_state.pwrStateResidencyTicks::ON 3092998033116                       # Cumulative time (in ticks) in various power states (Tick)
system.cpu.thread_0.numInsts                 30572809                       # Number of Instructions committed (Count)
system.cpu.thread_0.numOps                   52733026                       # Number of Ops committed (Count)
system.cpu.thread_0.numMemRefs                      0                       # Number of Memory References (Count)
system.cpu.workload.numSyscalls                   111                       # Number of system calls (Count)
system.mem_ctrl.avgPriority_cpu.inst::samples  11396383.00                       # Average QoS priority value for accepted requests (Count)
system.mem_ctrl.avgPriority_cpu.data::samples   7744270.00                       # Average QoS priority value for accepted requests (Count)
system.mem_ctrl.priorityMinLatency       0.000000018750                       # per QoS priority minimum request to response latency (Second)
system.mem_ctrl.priorityMaxLatency       0.436413116486                       # per QoS priority maximum request to response latency (Second)
system.mem_ctrl.numReadWriteTurnArounds          9503                       # Number of turnarounds from READ to WRITE (Count)
system.mem_ctrl.numWriteReadTurnArounds          9503                       # Number of turnarounds from WRITE to READ (Count)
system.mem_ctrl.numStayReadState             41613039                       # Number of times bus staying in READ state (Count)
system.mem_ctrl.numStayWriteState              148197                       # Number of times bus staying in WRITE state (Count)
system.mem_ctrl.readReqs                     19421630                       # Number of read requests accepted (Count)
system.mem_ctrl.writeReqs                     2862528                       # Number of write requests accepted (Count)
system.mem_ctrl.readBursts                   19421630                       # Number of controller read bursts, including those serviced by the write queue (Count)
system.mem_ctrl.writeBursts                   2862528                       # Number of controller write bursts, including those merged in the write queue (Count)
system.mem_ctrl.servicedByWrQ                  438331                       # Number of controller read bursts serviced by the write queue (Count)
system.mem_ctrl.mergedWrBursts                2705174                       # Number of controller write bursts merged with an existing one (Count)
system.mem_ctrl.neitherReadNorWriteReqs             0                       # Number of requests that are neither read nor write (Count)
system.mem_ctrl.avgRdQLen                        1.06                       # Average read queue length when enqueuing ((Count/Tick))
system.mem_ctrl.avgWrQLen                       25.90                       # Average write queue length when enqueuing ((Count/Tick))
system.mem_ctrl.numRdRetry                          0                       # Number of times read queue was full causing retry (Count)
system.mem_ctrl.numWrRetry                          0                       # Number of times write queue was full causing retry (Count)
system.mem_ctrl.readPktSize::0                 705214                       # Read request sizes (log2) (Count)
system.mem_ctrl.readPktSize::1                  14252                       # Read request sizes (log2) (Count)
system.mem_ctrl.readPktSize::2                5007375                       # Read request sizes (log2) (Count)
system.mem_ctrl.readPktSize::3                2298406                       # Read request sizes (log2) (Count)
system.mem_ctrl.readPktSize::4                      0                       # Read request sizes (log2) (Count)
system.mem_ctrl.readPktSize::5                      0                       # Read request sizes (log2) (Count)
system.mem_ctrl.readPktSize::6               11396383                       # Read request sizes (log2) (Count)
system.mem_ctrl.writePktSize::0                 78444                       # Write request sizes (log2) (Count)
system.mem_ctrl.writePktSize::1                  1233                       # Write request sizes (log2) (Count)
system.mem_ctrl.writePktSize::2               1904632                       # Write request sizes (log2) (Count)
system.mem_ctrl.writePktSize::3                878219                       # Write request sizes (log2) (Count)
system.mem_ctrl.writePktSize::4                     0                       # Write request sizes (log2) (Count)
system.mem_ctrl.writePktSize::5                     0                       # Write request sizes (log2) (Count)
system.mem_ctrl.writePktSize::6                     0                       # Write request sizes (log2) (Count)
system.mem_ctrl.rdQLenPdf::0                 18167637                       # What read queue length does an incoming req see (Count)
system.mem_ctrl.rdQLenPdf::1                   811388                       # What read queue length does an incoming req see (Count)
system.mem_ctrl.rdQLenPdf::2                     4274                       # What read queue length does an incoming req see (Count)
system.mem_ctrl.rdQLenPdf::3                        0                       # What read queue length does an incoming req see (Count)
system.mem_ctrl.rdQLenPdf::4                        0                       # What read queue length does an incoming req see (Count)
system.mem_ctrl.rdQLenPdf::5                        0                       # What read queue length does an incoming req see (Count)
system.mem_ctrl.rdQLenPdf::6                        0                       # What read queue length does an incoming req see (Count)
system.mem_ctrl.rdQLenPdf::7                        0                       # What read queue length does an incoming req see (Count)
system.mem_ctrl.rdQLenPdf::8                        0                       # What read queue length does an incoming req see (Count)
system.mem_ctrl.rdQLenPdf::9                        0                       # What read queue length does an incoming req see (Count)
system.mem_ctrl.rdQLenPdf::10                       0                       # What read queue length does an incoming req see (Count)
system.mem_ctrl.rdQLenPdf::11                       0                       # What read queue length does an incoming req see (Count)
system.mem_ctrl.rdQLenPdf::12                       0                       # What read queue length does an incoming req see (Count)
system.mem_ctrl.rdQLenPdf::13                       0                       # What read queue length does an incoming req see (Count)
system.mem_ctrl.rdQLenPdf::14                       0                       # What read queue length does an incoming req see (Count)
system.mem_ctrl.rdQLenPdf::15                       0                       # What read queue length does an incoming req see (Count)
system.mem_ctrl.rdQLenPdf::16                       0                       # What read queue length does an incoming req see (Count)
system.mem_ctrl.rdQLenPdf::17                       0                       # What read queue length does an incoming req see (Count)
system.mem_ctrl.rdQLenPdf::18                       0                       # What read queue length does an incoming req see (Count)
system.mem_ctrl.rdQLenPdf::19                       0                       # What read queue length does an incoming req see (Count)
system.mem_ctrl.rdQLenPdf::20                       0                       # What read queue length does an incoming req see (Count)
system.mem_ctrl.rdQLenPdf::21                       0                       # What read queue length does an incoming req see (Count)
system.mem_ctrl.rdQLenPdf::22                       0                       # What read queue length does an incoming req see (Count)
system.mem_ctrl.rdQLenPdf::23                       0                       # What read queue length does an incoming req see (Count)
system.mem_ctrl.rdQLenPdf::24                       0                       # What read queue length does an incoming req see (Count)
system.mem_ctrl.rdQLenPdf::25                       0                       # What read queue length does an incoming req see (Count)
system.mem_ctrl.rdQLenPdf::26                       0                       # What read queue length does an incoming req see (Count)
system.mem_ctrl.rdQLenPdf::27                       0                       # What read queue length does an incoming req see (Count)
system.mem_ctrl.rdQLenPdf::28                       0                       # What read queue length does an incoming req see (Count)
system.mem_ctrl.rdQLenPdf::29                       0                       # What read queue length does an incoming req see (Count)
system.mem_ctrl.rdQLenPdf::30                       0                       # What read queue length does an incoming req see (Count)
system.mem_ctrl.rdQLenPdf::31                       0                       # What read queue length does an incoming req see (Count)
system.mem_ctrl.wrQLenPdf::0                        1                       # What write queue length does an incoming req see (Count)
system.mem_ctrl.wrQLenPdf::1                        1                       # What write queue length does an incoming req see (Count)
system.mem_ctrl.wrQLenPdf::2                        1                       # What write queue length does an incoming req see (Count)
system.mem_ctrl.wrQLenPdf::3                        1                       # What write queue length does an incoming req see (Count)
system.mem_ctrl.wrQLenPdf::4                        1                       # What write queue length does an incoming req see (Count)
system.mem_ctrl.wrQLenPdf::5                        1                       # What write queue length does an incoming req see (Count)
system.mem_ctrl.wrQLenPdf::6                        1                       # What write queue length does an incoming req see (Count)
system.mem_ctrl.wrQLenPdf::7                        1                       # What write queue length does an incoming req see (Count)
system.mem_ctrl.wrQLenPdf::8                        1                       # What write queue length does an incoming req see (Count)
system.mem_ctrl.wrQLenPdf::9                        1                       # What write queue length does an incoming req see (Count)
system.mem_ctrl.wrQLenPdf::10                       1                       # What write queue length does an incoming req see (Count)
system.mem_ctrl.wrQLenPdf::11                       1                       # What write queue length does an incoming req see (Count)
system.mem_ctrl.wrQLenPdf::12                       1                       # What write queue length does an incoming req see (Count)
system.mem_ctrl.wrQLenPdf::13                       1                       # What write queue length does an incoming req see (Count)
system.mem_ctrl.wrQLenPdf::14                       1                       # What write queue length does an incoming req see (Count)
system.mem_ctrl.wrQLenPdf::15                    2359                       # What write queue length does an incoming req see (Count)
system.mem_ctrl.wrQLenPdf::16                    2871                       # What write queue length does an incoming req see (Count)
system.mem_ctrl.wrQLenPdf::17                    9496                       # What write queue length does an incoming req see (Count)
system.mem_ctrl.wrQLenPdf::18                    9505                       # What write queue length does an incoming req see (Count)
system.mem_ctrl.wrQLenPdf::19                    9514                       # What write queue length does an incoming req see (Count)
system.mem_ctrl.wrQLenPdf::20                    9505                       # What write queue length does an incoming req see (Count)
system.mem_ctrl.wrQLenPdf::21                    9504                       # What write queue length does an incoming req see (Count)
system.mem_ctrl.wrQLenPdf::22                    9536                       # What write queue length does an incoming req see (Count)
system.mem_ctrl.wrQLenPdf::23                    9505                       # What write queue length does an incoming req see (Count)
system.mem_ctrl.wrQLenPdf::24                    9507                       # What write queue length does an incoming req see (Count)
system.mem_ctrl.wrQLenPdf::25                    9505                       # What write queue length does an incoming req see (Count)
system.mem_ctrl.wrQLenPdf::26                    9505                       # What write queue length does an incoming req see (Count)
system.mem_ctrl.wrQLenPdf::27                    9506                       # What write queue length does an incoming req see (Count)
system.mem_ctrl.wrQLenPdf::28                    9504                       # What write queue length does an incoming req see (Count)
system.mem_ctrl.wrQLenPdf::29                    9504                       # What write queue length does an incoming req see (Count)
system.mem_ctrl.wrQLenPdf::30                    9504                       # What write queue length does an incoming req see (Count)
system.mem_ctrl.wrQLenPdf::31                    9503                       # What write queue length does an incoming req see (Count)
system.mem_ctrl.wrQLenPdf::32                    9503                       # What write queue length does an incoming req see (Count)
system.mem_ctrl.wrQLenPdf::33                       3                       # What write queue length does an incoming req see (Count)
system.mem_ctrl.wrQLenPdf::34                       0                       # What write queue length does an incoming req see (Count)
system.mem_ctrl.wrQLenPdf::35                       0                       # What write queue length does an incoming req see (Count)
system.mem_ctrl.wrQLenPdf::36                       0                       # What write queue length does an incoming req see (Count)
system.mem_ctrl.wrQLenPdf::37                       0                       # What write queue length does an incoming req see (Count)
system.mem_ctrl.wrQLenPdf::38                       0                       # What write queue length does an incoming req see (Count)
system.mem_ctrl.wrQLenPdf::39                       0                       # What write queue length does an incoming req see (Count)
system.mem_ctrl.wrQLenPdf::40                       0                       # What write queue length does an incoming req see (Count)
system.mem_ctrl.wrQLenPdf::41                       0                       # What write queue length does an incoming req see (Count)
system.mem_ctrl.wrQLenPdf::42                       0                       # What write queue length does an incoming req see (Count)
system.mem_ctrl.wrQLenPdf::43                       0                       # What write queue length does an incoming req see (Count)
system.mem_ctrl.wrQLenPdf::44                       0                       # What write queue length does an incoming req see (Count)
system.mem_ctrl.wrQLenPdf::45                       0                       # What write queue length does an incoming req see (Count)
system.mem_ctrl.wrQLenPdf::46                       0                       # What write queue length does an incoming req see (Count)
system.mem_ctrl.wrQLenPdf::47                       0                       # What write queue length does an incoming req see (Count)
system.mem_ctrl.wrQLenPdf::48                       0                       # What write queue length does an incoming req see (Count)
system.mem_ctrl.wrQLenPdf::49                       0                       # What write queue length does an incoming req see (Count)
system.mem_ctrl.wrQLenPdf::50                       0                       # What write queue length does an incoming req see (Count)
system.mem_ctrl.wrQLenPdf::51                       0                       # What write queue length does an incoming req see (Count)
system.mem_ctrl.wrQLenPdf::52                       0                       # What write queue length does an incoming req see (Count)
system.mem_ctrl.wrQLenPdf::53                       0                       # What write queue length does an incoming req see (Count)
system.mem_ctrl.wrQLenPdf::54                       0                       # What write queue length does an incoming req see (Count)
system.mem_ctrl.wrQLenPdf::55                       0                       # What write queue length does an incoming req see (Count)
system.mem_ctrl.wrQLenPdf::56                       0                       # What write queue length does an incoming req see (Count)
system.mem_ctrl.wrQLenPdf::57                       0                       # What write queue length does an incoming req see (Count)
system.mem_ctrl.wrQLenPdf::58                       0                       # What write queue length does an incoming req see (Count)
system.mem_ctrl.wrQLenPdf::59                       0                       # What write queue length does an incoming req see (Count)
system.mem_ctrl.wrQLenPdf::60                       0                       # What write queue length does an incoming req see (Count)
system.mem_ctrl.wrQLenPdf::61                       0                       # What write queue length does an incoming req see (Count)
system.mem_ctrl.wrQLenPdf::62                       0                       # What write queue length does an incoming req see (Count)
system.mem_ctrl.wrQLenPdf::63                       0                       # What write queue length does an incoming req see (Count)
system.mem_ctrl.rdPerTurnAround::samples         9503                       # Reads before turning the bus around for writes (Count)
system.mem_ctrl.rdPerTurnAround::mean     1997.566032                       # Reads before turning the bus around for writes (Count)
system.mem_ctrl.rdPerTurnAround::gmean    1240.327756                       # Reads before turning the bus around for writes (Count)
system.mem_ctrl.rdPerTurnAround::stdev    6812.106939                       # Reads before turning the bus around for writes (Count)
system.mem_ctrl.rdPerTurnAround::0-16383         9491     99.87%     99.87% # Reads before turning the bus around for writes (Count)
system.mem_ctrl.rdPerTurnAround::16384-32767           10      0.11%     99.98% # Reads before turning the bus around for writes (Count)
system.mem_ctrl.rdPerTurnAround::425984-442367            1      0.01%     99.99% # Reads before turning the bus around for writes (Count)
system.mem_ctrl.rdPerTurnAround::442368-458751            1      0.01%    100.00% # Reads before turning the bus around for writes (Count)
system.mem_ctrl.rdPerTurnAround::total           9503                       # Reads before turning the bus around for writes (Count)
system.mem_ctrl.wrPerTurnAround::samples         9503                       # Writes before turning the bus around for reads (Count)
system.mem_ctrl.wrPerTurnAround::mean       16.555088                       # Writes before turning the bus around for reads (Count)
system.mem_ctrl.wrPerTurnAround::gmean      16.532814                       # Writes before turning the bus around for reads (Count)
system.mem_ctrl.wrPerTurnAround::stdev       0.873913                       # Writes before turning the bus around for reads (Count)
system.mem_ctrl.wrPerTurnAround::16              6635     69.82%     69.82% # Writes before turning the bus around for reads (Count)
system.mem_ctrl.wrPerTurnAround::17               509      5.36%     75.18% # Writes before turning the bus around for reads (Count)
system.mem_ctrl.wrPerTurnAround::18              2311     24.32%     99.49% # Writes before turning the bus around for reads (Count)
system.mem_ctrl.wrPerTurnAround::19                48      0.51%    100.00% # Writes before turning the bus around for reads (Count)
system.mem_ctrl.wrPerTurnAround::total           9503                       # Writes before turning the bus around for reads (Count)
system.mem_ctrl.bytesReadWrQ                 28053184                       # Total number of bytes read from write queue (Byte)
system.mem_ctrl.bytesReadSys                768518861                       # Total read bytes from the system interface side (Byte)
system.mem_ctrl.bytesWrittenSys              14725182                       # Total written bytes from the system interface side (Byte)
system.mem_ctrl.avgRdBWSys               248470530.13666674                       # Average system read bandwidth in Byte/s ((Byte/Second))
system.mem_ctrl.avgWrBWSys               4760811.95084541                       # Average system write bandwidth in Byte/s ((Byte/Second))
system.mem_ctrl.totGap                   3092998006450                       # Total gap between requests (Tick)
system.mem_ctrl.avgGap                      138798.06                       # Average gap between requests ((Tick/Count))
system.mem_ctrl.requestorReadBytes::cpu.inst    729368512                       # Per-requestor bytes read from memory (Byte)
system.mem_ctrl.requestorReadBytes::cpu.data     36520102                       # Per-requestor bytes read from memory (Byte)
system.mem_ctrl.requestorWriteBytes::cpu.data       759068                       # Per-requestor bytes write to memory (Byte)
system.mem_ctrl.requestorReadRate::cpu.inst 235812795.284970611334                       # Per-requestor bytes read from memory rate ((Byte/Second))
system.mem_ctrl.requestorReadRate::cpu.data 11807347.308012448251                       # Per-requestor bytes read from memory rate ((Byte/Second))
system.mem_ctrl.requestorWriteRate::cpu.data 245414.963693102327                       # Per-requestor bytes write to memory rate ((Byte/Second))
system.mem_ctrl.requestorReadAccesses::cpu.inst     11396383                       # Per-requestor read serviced memory accesses (Count)
system.mem_ctrl.requestorReadAccesses::cpu.data      8025247                       # Per-requestor read serviced memory accesses (Count)
system.mem_ctrl.requestorWriteAccesses::cpu.data      2862528                       # Per-requestor write serviced memory accesses (Count)
system.mem_ctrl.requestorReadTotalLat::cpu.inst 288904493677                       # Per-requestor read total memory access latency (Tick)
system.mem_ctrl.requestorReadTotalLat::cpu.data 200510307523                       # Per-requestor read total memory access latency (Tick)
system.mem_ctrl.requestorWriteTotalLat::cpu.data 78540396809976                       # Per-requestor write total memory access latency (Tick)
system.mem_ctrl.requestorReadAvgLat::cpu.inst     25350.54                       # Per-requestor read average memory access latency ((Tick/Count))
system.mem_ctrl.requestorReadAvgLat::cpu.data     24984.94                       # Per-requestor read average memory access latency ((Tick/Count))
system.mem_ctrl.requestorWriteAvgLat::cpu.data  27437424.83                       # Per-requestor write average memory access latency ((Tick/Count))
system.mem_ctrl.dram.bytesRead::cpu.inst    729368512                       # Number of bytes read from this memory (Byte)
system.mem_ctrl.dram.bytesRead::cpu.data     39150349                       # Number of bytes read from this memory (Byte)
system.mem_ctrl.dram.bytesRead::total       768518861                       # Number of bytes read from this memory (Byte)
system.mem_ctrl.dram.bytesInstRead::cpu.inst    729368512                       # Number of instructions bytes read from this memory (Byte)
system.mem_ctrl.dram.bytesInstRead::total    729368512                       # Number of instructions bytes read from this memory (Byte)
system.mem_ctrl.dram.bytesWritten::cpu.data     14725182                       # Number of bytes written to this memory (Byte)
system.mem_ctrl.dram.bytesWritten::total     14725182                       # Number of bytes written to this memory (Byte)
system.mem_ctrl.dram.numReads::cpu.inst      11396383                       # Number of read requests responded to by this memory (Count)
system.mem_ctrl.dram.numReads::cpu.data       8025247                       # Number of read requests responded to by this memory (Count)
system.mem_ctrl.dram.numReads::total         19421630                       # Number of read requests responded to by this memory (Count)
system.mem_ctrl.dram.numWrites::cpu.data      2862528                       # Number of write requests responded to by this memory (Count)
system.mem_ctrl.dram.numWrites::total         2862528                       # Number of write requests responded to by this memory (Count)
system.mem_ctrl.dram.bwRead::cpu.inst       235812795                       # Total read bandwidth from this memory ((Byte/Second))
system.mem_ctrl.dram.bwRead::cpu.data        12657735                       # Total read bandwidth from this memory ((Byte/Second))
system.mem_ctrl.dram.bwRead::total          248470530                       # Total read bandwidth from this memory ((Byte/Second))
system.mem_ctrl.dram.bwInstRead::cpu.inst    235812795                       # Instruction read bandwidth from this memory ((Byte/Second))
system.mem_ctrl.dram.bwInstRead::total      235812795                       # Instruction read bandwidth from this memory ((Byte/Second))
system.mem_ctrl.dram.bwWrite::cpu.data        4760812                       # Write bandwidth from this memory ((Byte/Second))
system.mem_ctrl.dram.bwWrite::total           4760812                       # Write bandwidth from this memory ((Byte/Second))
system.mem_ctrl.dram.bwTotal::cpu.inst      235812795                       # Total bandwidth to/from this memory ((Byte/Second))
system.mem_ctrl.dram.bwTotal::cpu.data       17418547                       # Total bandwidth to/from this memory ((Byte/Second))
system.mem_ctrl.dram.bwTotal::total         253231342                       # Total bandwidth to/from this memory ((Byte/Second))
system.mem_ctrl.dram.readBursts              18983299                       # Number of DRAM read bursts (Count)
system.mem_ctrl.dram.writeBursts               157323                       # Number of DRAM write bursts (Count)
system.mem_ctrl.dram.perBankRdBursts::0       2099447                       # Per bank write bursts (Count)
system.mem_ctrl.dram.perBankRdBursts::1        547576                       # Per bank write bursts (Count)
system.mem_ctrl.dram.perBankRdBursts::2        249519                       # Per bank write bursts (Count)
system.mem_ctrl.dram.perBankRdBursts::3        193242                       # Per bank write bursts (Count)
system.mem_ctrl.dram.perBankRdBursts::4        347548                       # Per bank write bursts (Count)
system.mem_ctrl.dram.perBankRdBursts::5        380367                       # Per bank write bursts (Count)
system.mem_ctrl.dram.perBankRdBursts::6        392692                       # Per bank write bursts (Count)
system.mem_ctrl.dram.perBankRdBursts::7        556051                       # Per bank write bursts (Count)
system.mem_ctrl.dram.perBankRdBursts::8       1341257                       # Per bank write bursts (Count)
system.mem_ctrl.dram.perBankRdBursts::9       1746778                       # Per bank write bursts (Count)
system.mem_ctrl.dram.perBankRdBursts::10       454152                       # Per bank write bursts (Count)
system.mem_ctrl.dram.perBankRdBursts::11      7235046                       # Per bank write bursts (Count)
system.mem_ctrl.dram.perBankRdBursts::12      2281604                       # Per bank write bursts (Count)
system.mem_ctrl.dram.perBankRdBursts::13       434121                       # Per bank write bursts (Count)
system.mem_ctrl.dram.perBankRdBursts::14       368157                       # Per bank write bursts (Count)
system.mem_ctrl.dram.perBankRdBursts::15       355742                       # Per bank write bursts (Count)
system.mem_ctrl.dram.perBankWrBursts::0         17222                       # Per bank write bursts (Count)
system.mem_ctrl.dram.perBankWrBursts::1         11322                       # Per bank write bursts (Count)
system.mem_ctrl.dram.perBankWrBursts::2          4076                       # Per bank write bursts (Count)
system.mem_ctrl.dram.perBankWrBursts::3          4678                       # Per bank write bursts (Count)
system.mem_ctrl.dram.perBankWrBursts::4         10267                       # Per bank write bursts (Count)
system.mem_ctrl.dram.perBankWrBursts::5          9626                       # Per bank write bursts (Count)
system.mem_ctrl.dram.perBankWrBursts::6         10360                       # Per bank write bursts (Count)
system.mem_ctrl.dram.perBankWrBursts::7         10028                       # Per bank write bursts (Count)
system.mem_ctrl.dram.perBankWrBursts::8          9688                       # Per bank write bursts (Count)
system.mem_ctrl.dram.perBankWrBursts::9          8510                       # Per bank write bursts (Count)
system.mem_ctrl.dram.perBankWrBursts::10        11396                       # Per bank write bursts (Count)
system.mem_ctrl.dram.perBankWrBursts::11        10542                       # Per bank write bursts (Count)
system.mem_ctrl.dram.perBankWrBursts::12         9486                       # Per bank write bursts (Count)
system.mem_ctrl.dram.perBankWrBursts::13        10535                       # Per bank write bursts (Count)
system.mem_ctrl.dram.perBankWrBursts::14         9841                       # Per bank write bursts (Count)
system.mem_ctrl.dram.perBankWrBursts::15         9746                       # Per bank write bursts (Count)
system.mem_ctrl.dram.totQLat             133477944950                       # Total ticks spent queuing (Tick)
system.mem_ctrl.dram.totBusLat            94916495000                       # Total ticks spent in databus transfers (Tick)
system.mem_ctrl.dram.totMemAccLat        489414801200                       # Total ticks spent from burst creation until serviced by the DRAM (Tick)
system.mem_ctrl.dram.avgQLat                  7031.34                       # Average queueing delay per DRAM burst ((Tick/Count))
system.mem_ctrl.dram.avgBusLat                5000.00                       # Average bus latency per DRAM burst ((Tick/Count))
system.mem_ctrl.dram.avgMemAccLat            25781.34                       # Average memory access latency per DRAM burst ((Tick/Count))
system.mem_ctrl.dram.readRowHits             16544548                       # Number of row buffer hits during reads (Count)
system.mem_ctrl.dram.writeRowHits              146015                       # Number of row buffer hits during writes (Count)
system.mem_ctrl.dram.readRowHitRate             87.15                       # Row buffer hit rate for reads (Ratio)
system.mem_ctrl.dram.writeRowHitRate            92.81                       # Row buffer hit rate for writes (Ratio)
system.mem_ctrl.dram.bytesPerActivate::samples      2450052                       # Bytes accessed per row activation (Byte)
system.mem_ctrl.dram.bytesPerActivate::mean   499.988813                       # Bytes accessed per row activation (Byte)
system.mem_ctrl.dram.bytesPerActivate::gmean   311.581983                       # Bytes accessed per row activation (Byte)
system.mem_ctrl.dram.bytesPerActivate::stdev   395.640700                       # Bytes accessed per row activation (Byte)
system.mem_ctrl.dram.bytesPerActivate::0-127       517899     21.14%     21.14% # Bytes accessed per row activation (Byte)
system.mem_ctrl.dram.bytesPerActivate::128-255       496634     20.27%     41.41% # Bytes accessed per row activation (Byte)
system.mem_ctrl.dram.bytesPerActivate::256-383       205637      8.39%     49.80% # Bytes accessed per row activation (Byte)
system.mem_ctrl.dram.bytesPerActivate::384-511       112898      4.61%     54.41% # Bytes accessed per row activation (Byte)
system.mem_ctrl.dram.bytesPerActivate::512-639        99908      4.08%     58.49% # Bytes accessed per row activation (Byte)
system.mem_ctrl.dram.bytesPerActivate::640-767       135215      5.52%     64.01% # Bytes accessed per row activation (Byte)
system.mem_ctrl.dram.bytesPerActivate::768-895       127914      5.22%     69.23% # Bytes accessed per row activation (Byte)
system.mem_ctrl.dram.bytesPerActivate::896-1023        93849      3.83%     73.06% # Bytes accessed per row activation (Byte)
system.mem_ctrl.dram.bytesPerActivate::1024-1151       660098     26.94%    100.00% # Bytes accessed per row activation (Byte)
system.mem_ctrl.dram.bytesPerActivate::total      2450052                       # Bytes accessed per row activation (Byte)
system.mem_ctrl.dram.dramBytesRead         1214931136                       # Total bytes read (Byte)
system.mem_ctrl.dram.dramBytesWritten        10068672                       # Total bytes written (Byte)
system.mem_ctrl.dram.avgRdBW               392.800488                       # Average DRAM read bandwidth in MiBytes/s ((Byte/Second))
system.mem_ctrl.dram.avgWrBW                 3.255311                       # Average DRAM write bandwidth in MiBytes/s ((Byte/Second))
system.mem_ctrl.dram.peakBW                  12800.00                       # Theoretical peak bandwidth in MiByte/s ((Byte/Second))
system.mem_ctrl.dram.busUtil                     3.09                       # Data bus utilization in percentage (Ratio)
system.mem_ctrl.dram.busUtilRead                 3.07                       # Data bus utilization in percentage for reads (Ratio)
system.mem_ctrl.dram.busUtilWrite                0.03                       # Data bus utilization in percentage for writes (Ratio)
system.mem_ctrl.dram.pageHitRate                87.20                       # Row buffer hit rate, read and write combined (Ratio)
system.mem_ctrl.dram.power_state.pwrStateResidencyTicks::UNDEFINED 3092998033116                       # Cumulative time (in ticks) in various power states (Tick)
system.mem_ctrl.dram.rank0.actEnergy       4535627880                       # Energy for activate commands per rank (pJ) (Joule)
system.mem_ctrl.dram.rank0.preEnergy       2410739595                       # Energy for precharge commands per rank (pJ) (Joule)
system.mem_ctrl.dram.rank0.readEnergy     34032395880                       # Energy for read commands per rank (pJ) (Joule)
system.mem_ctrl.dram.rank0.writeEnergy      404962380                       # Energy for write commands per rank (pJ) (Joule)
system.mem_ctrl.dram.rank0.refreshEnergy 244158364320.000031                       # Energy for refresh commands per rank (pJ) (Joule)
system.mem_ctrl.dram.rank0.actBackEnergy 924495734940                       # Energy for active background per rank (pJ) (Joule)
system.mem_ctrl.dram.rank0.preBackEnergy 409188520800                       # Energy for precharge background per rank (pJ) (Joule)
system.mem_ctrl.dram.rank0.actPowerDownEnergy            0                       # Energy for active power-down per rank (pJ) (Joule)
system.mem_ctrl.dram.rank0.prePowerDownEnergy            0                       # Energy for precharge power-down per rank (pJ) (Joule)
system.mem_ctrl.dram.rank0.selfRefreshEnergy            0                       # Energy for self refresh per rank (pJ) (Joule)
system.mem_ctrl.dram.rank0.totalEnergy   1619226345795                       # Total energy per rank (pJ) (Joule)
system.mem_ctrl.dram.rank0.averagePower    523.513539                       # Core power per rank (mW) (Watt)
system.mem_ctrl.dram.rank0.totalIdleTime            0                       # Total Idle time Per DRAM Rank (Tick)
system.mem_ctrl.dram.rank0.pwrStateTime::IDLE 1054607418363                       # Time in different power states (Tick)
system.mem_ctrl.dram.rank0.pwrStateTime::REF 103281880000                       # Time in different power states (Tick)
system.mem_ctrl.dram.rank0.pwrStateTime::SREF            0                       # Time in different power states (Tick)
system.mem_ctrl.dram.rank0.pwrStateTime::PRE_PDN            0                       # Time in different power states (Tick)
system.mem_ctrl.dram.rank0.pwrStateTime::ACT 1935108734753                       # Time in different power states (Tick)
system.mem_ctrl.dram.rank0.pwrStateTime::ACT_PDN            0                       # Time in different power states (Tick)
system.mem_ctrl.dram.rank1.actEnergy      12957793380                       # Energy for activate commands per rank (pJ) (Joule)
system.mem_ctrl.dram.rank1.preEnergy       6887207745                       # Energy for precharge commands per rank (pJ) (Joule)
system.mem_ctrl.dram.rank1.readEnergy    101508358980                       # Energy for read commands per rank (pJ) (Joule)
system.mem_ctrl.dram.rank1.writeEnergy      416263680                       # Energy for write commands per rank (pJ) (Joule)
system.mem_ctrl.dram.rank1.refreshEnergy 244158364320.000031                       # Energy for refresh commands per rank (pJ) (Joule)
system.mem_ctrl.dram.rank1.actBackEnergy 1372176467520                       # Energy for active background per rank (pJ) (Joule)
system.mem_ctrl.dram.rank1.preBackEnergy  32194219680                       # Energy for precharge background per rank (pJ) (Joule)
system.mem_ctrl.dram.rank1.actPowerDownEnergy            0                       # Energy for active power-down per rank (pJ) (Joule)
system.mem_ctrl.dram.rank1.prePowerDownEnergy            0                       # Energy for precharge power-down per rank (pJ) (Joule)
system.mem_ctrl.dram.rank1.selfRefreshEnergy            0                       # Energy for self refresh per rank (pJ) (Joule)
system.mem_ctrl.dram.rank1.totalEnergy   1770298675305                       # Total energy per rank (pJ) (Joule)
system.mem_ctrl.dram.rank1.averagePower    572.356871                       # Core power per rank (mW) (Watt)
system.mem_ctrl.dram.rank1.totalIdleTime            0                       # Total Idle time Per DRAM Rank (Tick)
system.mem_ctrl.dram.rank1.pwrStateTime::IDLE  64077789368                       # Time in different power states (Tick)
system.mem_ctrl.dram.rank1.pwrStateTime::REF 103281880000                       # Time in different power states (Tick)
system.mem_ctrl.dram.rank1.pwrStateTime::SREF            0                       # Time in different power states (Tick)
system.mem_ctrl.dram.rank1.pwrStateTime::PRE_PDN            0                       # Time in different power states (Tick)
system.mem_ctrl.dram.rank1.pwrStateTime::ACT 2925638363748                       # Time in different power states (Tick)
system.mem_ctrl.dram.rank1.pwrStateTime::ACT_PDN            0                       # Time in different power states (Tick)
system.mem_ctrl.power_state.pwrStateResidencyTicks::UNDEFINED 3092998033116                       # Cumulative time (in ticks) in various power states (Tick)
system.membus.transDist::ReadReq             19421136                       # Transaction distribution (Count)
system.membus.transDist::ReadResp            19421134                       # Transaction distribution (Count)
system.membus.transDist::WriteReq             2862036                       # Transaction distribution (Count)
system.membus.transDist::WriteResp            2862036                       # Transaction distribution (Count)
system.membus.transDist::SoftPFReq                  2                       # Transaction distribution (Count)
system.membus.transDist::SoftPFResp                 2                       # Transaction distribution (Count)
system.membus.transDist::LockedRMWReadReq          492                       # Transaction distribution (Count)
system.membus.transDist::LockedRMWReadResp          492                       # Transaction distribution (Count)
system.membus.transDist::LockedRMWWriteReq          492                       # Transaction distribution (Count)
system.membus.transDist::LockedRMWWriteResp          492                       # Transaction distribution (Count)
system.membus.pktCount_system.cpu.fetch1.icache_port::system.mem_ctrl.port     22792765                       # Packet count per connected requestor and responder (Count)
system.membus.pktCount_system.cpu.fetch1.icache_port::total     22792765                       # Packet count per connected requestor and responder (Count)
system.membus.pktCount_system.cpu.execute.dcache_port::system.mem_ctrl.port     21775549                       # Packet count per connected requestor and responder (Count)
system.membus.pktCount_system.cpu.execute.dcache_port::total     21775549                       # Packet count per connected requestor and responder (Count)
system.membus.pktCount::total                44568314                       # Packet count per connected requestor and responder (Count)
system.membus.pktSize_system.cpu.fetch1.icache_port::system.mem_ctrl.port    729368448                       # Cumulative packet size per connected requestor and responder (Byte)
system.membus.pktSize_system.cpu.fetch1.icache_port::total    729368448                       # Cumulative packet size per connected requestor and responder (Byte)
system.membus.pktSize_system.cpu.execute.dcache_port::system.mem_ctrl.port     53875523                       # Cumulative packet size per connected requestor and responder (Byte)
system.membus.pktSize_system.cpu.execute.dcache_port::total     53875523                       # Cumulative packet size per connected requestor and responder (Byte)
[...]
system.mem_ctrl.dram.bwInstRead::total      230540748                       # Instruction read bandwidth from this memory ((Byte/Second))
system.mem_ctrl.dram.bwWrite::cpu.data       11522960                       # Write bandwidth from this memory ((Byte/Second))
system.mem_ctrl.dram.bwWrite::total          11522960                       # Write bandwidth from this memory ((Byte/Second))
system.mem_ctrl.dram.bwTotal::cpu.inst      230540748                       # Total bandwidth to/from this memory ((Byte/Second))
system.mem_ctrl.dram.bwTotal::cpu.data       27248758                       # Total bandwidth to/from this memory ((Byte/Second))
system.mem_ctrl.dram.bwTotal::total         257789506                       # Total bandwidth to/from this memory ((Byte/Second))
system.mem_ctrl.dram.readBursts               7546129                       # Number of DRAM read bursts (Count)
system.mem_ctrl.dram.writeBursts                25769                       # Number of DRAM write bursts (Count)
system.mem_ctrl.dram.perBankRdBursts::0       1138624                       # Per bank write bursts (Count)
system.mem_ctrl.dram.perBankRdBursts::1        873612                       # Per bank write bursts (Count)
system.mem_ctrl.dram.perBankRdBursts::2         30702                       # Per bank write bursts (Count)
system.mem_ctrl.dram.perBankRdBursts::3         47449                       # Per bank write bursts (Count)
system.mem_ctrl.dram.perBankRdBursts::4        427935                       # Per bank write bursts (Count)
system.mem_ctrl.dram.perBankRdBursts::5       1357478                       # Per bank write bursts (Count)
system.mem_ctrl.dram.perBankRdBursts::6        115688                       # Per bank write bursts (Count)
system.mem_ctrl.dram.perBankRdBursts::7        474457                       # Per bank write bursts (Count)
system.mem_ctrl.dram.perBankRdBursts::8        342021                       # Per bank write bursts (Count)
system.mem_ctrl.dram.perBankRdBursts::9         25900                       # Per bank write bursts (Count)
system.mem_ctrl.dram.perBankRdBursts::10        25856                       # Per bank write bursts (Count)
system.mem_ctrl.dram.perBankRdBursts::11       810173                       # Per bank write bursts (Count)
system.mem_ctrl.dram.perBankRdBursts::12       174745                       # Per bank write bursts (Count)
system.mem_ctrl.dram.perBankRdBursts::13       382687                       # Per bank write bursts (Count)
system.mem_ctrl.dram.perBankRdBursts::14      1008994                       # Per bank write bursts (Count)
system.mem_ctrl.dram.perBankRdBursts::15       309808                       # Per bank write bursts (Count)
system.mem_ctrl.dram.perBankWrBursts::0          4835                       # Per bank write bursts (Count)
system.mem_ctrl.dram.perBankWrBursts::1          2777                       # Per bank write bursts (Count)
system.mem_ctrl.dram.perBankWrBursts::2          1312                       # Per bank write bursts (Count)
system.mem_ctrl.dram.perBankWrBursts::3          1369                       # Per bank write bursts (Count)
system.mem_ctrl.dram.perBankWrBursts::4          1546                       # Per bank write bursts (Count)
system.mem_ctrl.dram.perBankWrBursts::5          1503                       # Per bank write bursts (Count)
system.mem_ctrl.dram.perBankWrBursts::6          1496                       # Per bank write bursts (Count)
system.mem_ctrl.dram.perBankWrBursts::7          1483                       # Per bank write bursts (Count)
system.mem_ctrl.dram.perBankWrBursts::8          1512                       # Per bank write bursts (Count)
system.mem_ctrl.dram.perBankWrBursts::9          1298                       # Per bank write bursts (Count)
system.mem_ctrl.dram.perBankWrBursts::10         1314                       # Per bank write bursts (Count)
system.mem_ctrl.dram.perBankWrBursts::11         1167                       # Per bank write bursts (Count)
system.mem_ctrl.dram.perBankWrBursts::12         1099                       # Per bank write bursts (Count)
system.mem_ctrl.dram.perBankWrBursts::13          889                       # Per bank write bursts (Count)
system.mem_ctrl.dram.perBankWrBursts::14          841                       # Per bank write bursts (Count)
system.mem_ctrl.dram.perBankWrBursts::15         1328                       # Per bank write bursts (Count)
system.mem_ctrl.dram.totQLat              63929310716                       # Total ticks spent queuing (Tick)
system.mem_ctrl.dram.totBusLat            37730645000                       # Total ticks spent in databus transfers (Tick)
system.mem_ctrl.dram.totMemAccLat        205419229466                       # Total ticks spent from burst creation until serviced by the DRAM (Tick)
system.mem_ctrl.dram.avgQLat                  8471.80                       # Average queueing delay per DRAM burst ((Tick/Count))
system.mem_ctrl.dram.avgBusLat                5000.00                       # Average bus latency per DRAM burst ((Tick/Count))
system.mem_ctrl.dram.avgMemAccLat            27221.80                       # Average memory access latency per DRAM burst ((Tick/Count))
system.mem_ctrl.dram.readRowHits              5948127                       # Number of row buffer hits during reads (Count)
system.mem_ctrl.dram.writeRowHits               22962                       # Number of row buffer hits during writes (Count)
system.mem_ctrl.dram.readRowHitRate             78.82                       # Row buffer hit rate for reads (Ratio)
system.mem_ctrl.dram.writeRowHitRate            89.11                       # Row buffer hit rate for writes (Ratio)
system.mem_ctrl.dram.bytesPerActivate::samples      1600804                       # Bytes accessed per row activation (Byte)
system.mem_ctrl.dram.bytesPerActivate::mean   302.722882                       # Bytes accessed per row activation (Byte)
system.mem_ctrl.dram.bytesPerActivate::gmean   191.287638                       # Bytes accessed per row activation (Byte)
system.mem_ctrl.dram.bytesPerActivate::stdev   296.871139                       # Bytes accessed per row activation (Byte)
system.mem_ctrl.dram.bytesPerActivate::0-127       520146     32.49%     32.49% # Bytes accessed per row activation (Byte)
system.mem_ctrl.dram.bytesPerActivate::128-255       417364     26.07%     58.56% # Bytes accessed per row activation (Byte)
system.mem_ctrl.dram.bytesPerActivate::256-383       202881     12.67%     71.24% # Bytes accessed per row activation (Byte)
system.mem_ctrl.dram.bytesPerActivate::384-511       107413      6.71%     77.95% # Bytes accessed per row activation (Byte)
system.mem_ctrl.dram.bytesPerActivate::512-639        60557      3.78%     81.73% # Bytes accessed per row activation (Byte)
system.mem_ctrl.dram.bytesPerActivate::640-767        73938      4.62%     86.35% # Bytes accessed per row activation (Byte)
system.mem_ctrl.dram.bytesPerActivate::768-895        73861      4.61%     90.96% # Bytes accessed per row activation (Byte)
system.mem_ctrl.dram.bytesPerActivate::896-1023        40479      2.53%     93.49% # Bytes accessed per row activation (Byte)
system.mem_ctrl.dram.bytesPerActivate::1024-1151       104165      6.51%    100.00% # Bytes accessed per row activation (Byte)
system.mem_ctrl.dram.bytesPerActivate::total      1600804                       # Bytes accessed per row activation (Byte)
system.mem_ctrl.dram.dramBytesRead          482952256                       # Total bytes read (Byte)
system.mem_ctrl.dram.dramBytesWritten         1649216                       # Total bytes written (Byte)
system.mem_ctrl.dram.avgRdBW               370.508299                       # Average DRAM read bandwidth in MiBytes/s ((Byte/Second))
system.mem_ctrl.dram.avgWrBW                 1.265235                       # Average DRAM write bandwidth in MiBytes/s ((Byte/Second))
system.mem_ctrl.dram.peakBW                  12800.00                       # Theoretical peak bandwidth in MiByte/s ((Byte/Second))
system.mem_ctrl.dram.busUtil                     2.90                       # Data bus utilization in percentage (Ratio)
system.mem_ctrl.dram.busUtilRead                 2.89                       # Data bus utilization in percentage for reads (Ratio)
system.mem_ctrl.dram.busUtilWrite                0.01                       # Data bus utilization in percentage for writes (Ratio)
system.mem_ctrl.dram.pageHitRate                78.86                       # Row buffer hit rate, read and write combined (Ratio)
system.mem_ctrl.dram.power_state.pwrStateResidencyTicks::UNDEFINED 1303485665377                       # Cumulative time (in ticks) in various power states (Tick)
system.mem_ctrl.dram.rank0.actEnergy       6312045600                       # Energy for activate commands per rank (pJ) (Joule)
system.mem_ctrl.dram.rank0.preEnergy       3354920415                       # Energy for precharge commands per rank (pJ) (Joule)
system.mem_ctrl.dram.rank0.readEnergy     31886847300                       # Energy for read commands per rank (pJ) (Joule)
system.mem_ctrl.dram.rank0.writeEnergy       85195620                       # Energy for write commands per rank (pJ) (Joule)
system.mem_ctrl.dram.rank0.refreshEnergy 102895653120.000015                       # Energy for refresh commands per rank (pJ) (Joule)
system.mem_ctrl.dram.rank0.actBackEnergy 563411119200                       # Energy for active background per rank (pJ) (Joule)
system.mem_ctrl.dram.rank0.preBackEnergy  26087008800                       # Energy for precharge background per rank (pJ) (Joule)
system.mem_ctrl.dram.rank0.actPowerDownEnergy            0                       # Energy for active power-down per rank (pJ) (Joule)
system.mem_ctrl.dram.rank0.prePowerDownEnergy            0                       # Energy for precharge power-down per rank (pJ) (Joule)
system.mem_ctrl.dram.rank0.selfRefreshEnergy            0                       # Energy for self refresh per rank (pJ) (Joule)
system.mem_ctrl.dram.rank0.totalEnergy   734032790055                       # Total energy per rank (pJ) (Joule)
system.mem_ctrl.dram.rank0.averagePower    563.130696                       # Core power per rank (mW) (Watt)
system.mem_ctrl.dram.rank0.totalIdleTime            0                       # Total Idle time Per DRAM Rank (Tick)
system.mem_ctrl.dram.rank0.pwrStateTime::IDLE  62990221933                       # Time in different power states (Tick)
system.mem_ctrl.dram.rank0.pwrStateTime::REF  43526140928                       # Time in different power states (Tick)
system.mem_ctrl.dram.rank0.pwrStateTime::SREF            0                       # Time in different power states (Tick)
system.mem_ctrl.dram.rank0.pwrStateTime::PRE_PDN            0                       # Time in different power states (Tick)
system.mem_ctrl.dram.rank0.pwrStateTime::ACT 1196969302516                       # Time in different power states (Tick)
system.mem_ctrl.dram.rank0.pwrStateTime::ACT_PDN            0                       # Time in different power states (Tick)
system.mem_ctrl.dram.rank1.actEnergy       5117730660                       # Energy for activate commands per rank (pJ) (Joule)
system.mem_ctrl.dram.rank1.preEnergy       2720130765                       # Energy for precharge commands per rank (pJ) (Joule)
system.mem_ctrl.dram.rank1.readEnergy     21992513760                       # Energy for read commands per rank (pJ) (Joule)
system.mem_ctrl.dram.rank1.writeEnergy       49318560                       # Energy for write commands per rank (pJ) (Joule)
system.mem_ctrl.dram.rank1.refreshEnergy 102895653120.000015                       # Energy for refresh commands per rank (pJ) (Joule)
system.mem_ctrl.dram.rank1.actBackEnergy 528292747740                       # Energy for active background per rank (pJ) (Joule)
system.mem_ctrl.dram.rank1.preBackEnergy  55660374240                       # Energy for precharge background per rank (pJ) (Joule)
system.mem_ctrl.dram.rank1.actPowerDownEnergy            0                       # Energy for active power-down per rank (pJ) (Joule)
system.mem_ctrl.dram.rank1.prePowerDownEnergy            0                       # Energy for precharge power-down per rank (pJ) (Joule)
system.mem_ctrl.dram.rank1.selfRefreshEnergy            0                       # Energy for self refresh per rank (pJ) (Joule)
system.mem_ctrl.dram.rank1.totalEnergy   716728468845                       # Total energy per rank (pJ) (Joule)
system.mem_ctrl.dram.rank1.averagePower    549.855275                       # Core power per rank (mW) (Watt)
system.mem_ctrl.dram.rank1.totalIdleTime            0                       # Total Idle time Per DRAM Rank (Tick)
system.mem_ctrl.dram.rank1.pwrStateTime::IDLE 138866899625                       # Time in different power states (Tick)
system.mem_ctrl.dram.rank1.pwrStateTime::REF  43526140928                       # Time in different power states (Tick)
system.mem_ctrl.dram.rank1.pwrStateTime::SREF            0                       # Time in different power states (Tick)
system.mem_ctrl.dram.rank1.pwrStateTime::PRE_PDN            0                       # Time in different power states (Tick)
system.mem_ctrl.dram.rank1.pwrStateTime::ACT 1121092624824                       # Time in different power states (Tick)
system.mem_ctrl.dram.rank1.pwrStateTime::ACT_PDN            0                       # Time in different power states (Tick)
system.mem_ctrl.power_state.pwrStateResidencyTicks::UNDEFINED 1303485665377                       # Cumulative time (in ticks) in various power states (Tick)
system.membus.transDist::ReadReq              7962308                       # Transaction distribution (Count)
system.membus.transDist::ReadResp             7962309                       # Transaction distribution (Count)
system.membus.transDist::WriteReq             2326152                       # Transaction distribution (Count)
system.membus.transDist::WriteResp            2326152                       # Transaction distribution (Count)
system.membus.transDist::LockedRMWReadReq          292                       # Transaction distribution (Count)
system.membus.transDist::LockedRMWReadResp          292                       # Transaction distribution (Count)
system.membus.transDist::LockedRMWWriteReq          292                       # Transaction distribution (Count)
system.membus.transDist::LockedRMWWriteResp          292                       # Transaction distribution (Count)
system.membus.pktCount_system.cpu.fetch1.icache_port::system.mem_ctrl.port      9390828                       # Packet count per connected requestor and responder (Count)
system.membus.pktCount_system.cpu.fetch1.icache_port::total      9390828                       # Packet count per connected requestor and responder (Count)
system.membus.pktCount_system.cpu.execute.dcache_port::system.mem_ctrl.port     11187261                       # Packet count per connected requestor and responder (Count)
system.membus.pktCount_system.cpu.execute.dcache_port::total     11187261                       # Packet count per connected requestor and responder (Count)
system.membus.pktCount::total                20578089                       # Packet count per connected requestor and responder (Count)
system.membus.pktSize_system.cpu.fetch1.icache_port::system.mem_ctrl.port    300506496                       # Cumulative packet size per connected requestor and responder (Byte)
system.membus.pktSize_system.cpu.fetch1.icache_port::total    300506496                       # Cumulative packet size per connected requestor and responder (Byte)
system.membus.pktSize_system.cpu.execute.dcache_port::system.mem_ctrl.port     35518374                       # Cumulative packet size per connected requestor and responder (Byte)
system.membus.pktSize_system.cpu.execute.dcache_port::total     35518374                       # Cumulative packet size per connected requestor and responder (Byte)
system.membus.pktSize::total                336024870                       # Cumulative packet size per connected requestor and responder (Byte)
system.membus.snoops                                0                       # Total snoops (Count)
system.membus.snoopTraffic                          0                       # Total snoop traffic (Byte)
system.membus.snoopFanout::samples           10289044                       # Request fanout histogram (Count)
system.membus.snoopFanout::mean                     0                       # Request fanout histogram (Count)
system.membus.snoopFanout::stdev                    0                       # Request fanout histogram (Count)
system.membus.snoopFanout::underflows               0      0.00%      0.00% # Request fanout histogram (Count)
system.membus.snoopFanout::0                 10289044    100.00%    100.00% # Request fanout histogram (Count)
system.membus.snoopFanout::1                        0      0.00%    100.00% # Request fanout histogram (Count)
system.membus.snoopFanout::overflows                0      0.00%    100.00% # Request fanout histogram (Count)
system.membus.snoopFanout::min_value                0                       # Request fanout histogram (Count)
system.membus.snoopFanout::max_value                0                       # Request fanout histogram (Count)
system.membus.snoopFanout::total             10289044                       # Request fanout histogram (Count)
system.membus.power_state.pwrStateResidencyTicks::UNDEFINED 1303485665377                       # Cumulative time (in ticks) in various power states (Tick)
system.membus.reqLayer2.occupancy        168202301504                       # Layer occupancy (ticks) (Tick)
system.membus.reqLayer2.utilization               0.1                       # Layer utilization (Ratio)
system.membus.respLayer1.occupancy       319987001054                       # Layer occupancy (ticks) (Tick)
system.membus.respLayer1.utilization              0.2                       # Layer utilization (Ratio)
system.membus.respLayer2.occupancy       130218964177                       # Layer occupancy (ticks) (Tick)
system.membus.respLayer2.utilization              0.1                       # Layer utilization (Ratio)
system.membus.snoop_filter.totRequests              0                       # Total number of requests made to the snoop filter. (Count)
system.membus.snoop_filter.hitSingleRequests            0                       # Number of requests hitting in the snoop filter with a single holder of the requested data. (Count)
system.membus.snoop_filter.hitMultiRequests            0                       # Number of requests hitting in the snoop filter with multiple (>1) holders of the requested data. (Count)
system.membus.snoop_filter.totSnoops                0                       # Total number of snoops made to the snoop filter. (Count)
system.membus.snoop_filter.hitSingleSnoops            0                       # Number of snoops hitting in the snoop filter with a single holder of the requested data. (Count)
system.membus.snoop_filter.hitMultiSnoops            0                       # Number of snoops hitting in the snoop filter with multiple (>1) holders of the requested data. (Count)
system.workload.inst.arm                            0                       # number of arm instructions executed (Count)
system.workload.inst.quiesce                        0                       # number of quiesce instructions executed (Count)
system.cpu.idleCycles                        29557657                       # Total number of cycles that the object has spent stopped (Unspecified)
system.cpu.tickCycles                        68206212                       # Number of cycles that the object actually ticked (Unspecified)

---------- End Simulation Statistics   ----------
