
---------- Begin Simulation Statistics ----------
simSeconds                                   2.777510                       # Number of seconds simulated (Second)
simTicks                                 2777509920516                       # Number of ticks simulated (Tick)
finalTick                                2777509920516                       # Number of ticks from beginning of simulation (restored from checkpoints and never reset) (Tick)
simFreq                                  1000000000000                       # The number of ticks per simulated second ((Tick/Second))
hostSeconds                                    527.11                       # Real time elapsed on the host (Second)
hostTickRate                               5269314250                       # The number of ticks simulated per host second (ticks/s) ((Tick/Second))
hostMemory                                    8647528                       # Number of bytes of host memory used (Byte)
simInsts                                     96329095                       # Number of instructions simulated (Count)
simOps                                      175385603                       # Number of ops (including micro ops) simulated (Count)
hostInstRate                                   182749                       # Simulator instruction rate (inst/s) ((Count/Second))
hostOpRate                                     332730                       # Simulator op (including micro ops) rate (op/s) ((Count/Second))
system.clk_domain.clock                         13333                       # Clock period in ticks (Tick)
system.clk_domain.voltage_domain.voltage            1                       # Voltage in Volts (Volt)
system.cpu.numCycles                        208318453                       # Number of cpu cycles simulated (Cycle)
system.cpu.cpi                               2.162570                       # CPI: cycles per instruction (core level) ((Cycle/Count))
system.cpu.ipc                               0.462413                       # IPC: instructions per cycle (core level) ((Count/Cycle))
system.cpu.numWorkItemsStarted                      0                       # Number of work items this cpu started (Count)
system.cpu.numWorkItemsCompleted                    0                       # Number of work items this cpu completed (Count)
system.cpu.instsAdded                       207825384                       # Number of instructions added to the IQ (excludes non-spec) (Count)
system.cpu.nonSpecInstsAdded                   635655                       # Number of non-speculative instructions added to the IQ (Count)
system.cpu.instsIssued                      206946728                       # Number of instructions issued (Count)
system.cpu.squashedInstsIssued                  92859                       # Number of squashed instructions issued (Count)
system.cpu.squashedInstsExamined             33075432                       # Number of squashed instructions iterated over during squash; mainly for profiling (Count)
system.cpu.squashedOperandsExamined          62537670                       # Number of squashed operands that are examined and possibly removed from graph (Count)
system.cpu.squashedNonSpecRemoved              267922                       # Number of squashed non-spec instructions that were removed (Count)
system.cpu.numIssuedDist::samples           206273929                       # Number of insts issued each cycle (Count)
system.cpu.numIssuedDist::mean               1.003262                       # Number of insts issued each cycle (Count)
system.cpu.numIssuedDist::stdev              1.669255                       # Number of insts issued each cycle (Count)
system.cpu.numIssuedDist::underflows                0      0.00%      0.00% # Number of insts issued each cycle (Count)
system.cpu.numIssuedDist::0                 126982119     61.56%     61.56% # Number of insts issued each cycle (Count)
system.cpu.numIssuedDist::1                  30006341     14.55%     76.11% # Number of insts issued each cycle (Count)
system.cpu.numIssuedDist::2                  16493435      8.00%     84.10% # Number of insts issued each cycle (Count)
system.cpu.numIssuedDist::3                  10401598      5.04%     89.15% # Number of insts issued each cycle (Count)
system.cpu.numIssuedDist::4                   9018745      4.37%     93.52% # Number of insts issued each cycle (Count)
system.cpu.numIssuedDist::5                   6196239      3.00%     96.52% # Number of insts issued each cycle (Count)
system.cpu.numIssuedDist::6                   5011207      2.43%     98.95% # Number of insts issued each cycle (Count)
system.cpu.numIssuedDist::7                   1688654      0.82%     99.77% # Number of insts issued each cycle (Count)
system.cpu.numIssuedDist::8                    475591      0.23%    100.00% # Number of insts issued each cycle (Count)
system.cpu.numIssuedDist::overflows                 0      0.00%    100.00% # Number of insts issued each cycle (Count)
system.cpu.numIssuedDist::min_value                 0                       # Number of insts issued each cycle (Count)
system.cpu.numIssuedDist::max_value                 8                       # Number of insts issued each cycle (Count)
system.cpu.numIssuedDist::total             206273929                       # Number of insts issued each cycle (Count)
system.cpu.statFuBusy::No_OpClass                   0      0.00%      0.00% # attempts to use FU when none available (Count)
system.cpu.statFuBusy::IntAlu                 2097402     86.19%     86.19% # attempts to use FU when none available (Count)
system.cpu.statFuBusy::IntMult                      0      0.00%     86.19% # attempts to use FU when none available (Count)
system.cpu.statFuBusy::IntDiv                       0      0.00%     86.19% # attempts to use FU when none available (Count)
system.cpu.statFuBusy::FloatAdd                     0      0.00%     86.19% # attempts to use FU when none available (Count)
system.cpu.statFuBusy::FloatCmp                     0      0.00%     86.19% # attempts to use FU when none available (Count)
system.cpu.statFuBusy::FloatCvt                     0      0.00%     86.19% # attempts to use FU when none available (Count)
system.cpu.statFuBusy::FloatMult                    0      0.00%     86.19% # attempts to use FU when none available (Count)
system.cpu.statFuBusy::FloatMultAcc                 0      0.00%     86.19% # attempts to use FU when none available (Count)
system.cpu.statFuBusy::FloatDiv                     0      0.00%     86.19% # attempts to use FU when none available (Count)
system.cpu.statFuBusy::FloatMisc                    0      0.00%     86.19% # attempts to use FU when none available (Count)
system.cpu.statFuBusy::FloatSqrt                    0      0.00%     86.19% # attempts to use FU when none available (Count)
system.cpu.statFuBusy::SimdAdd                     32      0.00%     86.19% # attempts to use FU when none available (Count)
system.cpu.statFuBusy::SimdAddAcc                   0      0.00%     86.19% # attempts to use FU when none available (Count)
system.cpu.statFuBusy::SimdAlu                    121      0.00%     86.20% # attempts to use FU when none available (Count)
system.cpu.statFuBusy::SimdCmp                      0      0.00%     86.20% # attempts to use FU when none available (Count)
system.cpu.statFuBusy::SimdCvt                      4      0.00%     86.20% # attempts to use FU when none available (Count)
system.cpu.statFuBusy::SimdMisc                    19      0.00%     86.20% # attempts to use FU when none available (Count)
system.cpu.statFuBusy::SimdMult                     0      0.00%     86.20% # attempts to use FU when none available (Count)
system.cpu.statFuBusy::SimdMultAcc                  0      0.00%     86.20% # attempts to use FU when none available (Count)
system.cpu.statFuBusy::SimdMatMultAcc               0      0.00%     86.20% # attempts to use FU when none available (Count)
system.cpu.statFuBusy::SimdShift                    0      0.00%     86.20% # attempts to use FU when none available (Count)
system.cpu.statFuBusy::SimdShiftAcc                 0      0.00%     86.20% # attempts to use FU when none available (Count)
system.cpu.statFuBusy::SimdDiv                      0      0.00%     86.20% # attempts to use FU when none available (Count)
system.cpu.statFuBusy::SimdSqrt                     0      0.00%     86.20% # attempts to use FU when none available (Count)
system.cpu.statFuBusy::SimdFloatAdd                 0      0.00%     86.20% # attempts to use FU when none available (Count)
system.cpu.statFuBusy::SimdFloatAlu                 0      0.00%     86.20% # attempts to use FU when none available (Count)
system.cpu.statFuBusy::SimdFloatCmp                 0      0.00%     86.20% # attempts to use FU when none available (Count)
system.cpu.statFuBusy::SimdFloatCvt                 0      0.00%     86.20% # attempts to use FU when none available (Count)
system.cpu.statFuBusy::SimdFloatDiv                 0      0.00%     86.20% # attempts to use FU when none available (Count)
system.cpu.statFuBusy::SimdFloatMisc                0      0.00%     86.20% # attempts to use FU when none available (Count)
system.cpu.statFuBusy::SimdFloatMult                0      0.00%     86.20% # attempts to use FU when none available (Count)
system.cpu.statFuBusy::SimdFloatMultAcc             0      0.00%     86.20% # attempts to use FU when none available (Count)
system.cpu.statFuBusy::SimdFloatMatMultAcc            0      0.00%     86.20% # attempts to use FU when none available (Count)
system.cpu.statFuBusy::SimdFloatSqrt                0      0.00%     86.20% # attempts to use FU when none available (Count)
system.cpu.statFuBusy::SimdReduceAdd                0      0.00%     86.20% # attempts to use FU when none available (Count)
system.cpu.statFuBusy::SimdReduceAlu                0      0.00%     86.20% # attempts to use FU when none available (Count)
system.cpu.statFuBusy::SimdReduceCmp                0      0.00%     86.20% # attempts to use FU when none available (Count)
system.cpu.statFuBusy::SimdFloatReduceAdd            0      0.00%     86.20% # attempts to use FU when none available (Count)
system.cpu.statFuBusy::SimdFloatReduceCmp            0      0.00%     86.20% # attempts to use FU when none available (Count)
system.cpu.statFuBusy::SimdAes                      0      0.00%     86.20% # attempts to use FU when none available (Count)
system.cpu.statFuBusy::SimdAesMix                   0      0.00%     86.20% # attempts to use FU when none available (Count)
system.cpu.statFuBusy::SimdSha1Hash                 0      0.00%     86.20% # attempts to use FU when none available (Count)
system.cpu.statFuBusy::SimdSha1Hash2                0      0.00%     86.20% # attempts to use FU when none available (Count)
system.cpu.statFuBusy::SimdSha256Hash               0      0.00%     86.20% # attempts to use FU when none available (Count)
system.cpu.statFuBusy::SimdSha256Hash2              0      0.00%     86.20% # attempts to use FU when none available (Count)
system.cpu.statFuBusy::SimdShaSigma2                0      0.00%     86.20% # attempts to use FU when none available (Count)
system.cpu.statFuBusy::SimdShaSigma3                0      0.00%     86.20% # attempts to use FU when none available (Count)
system.cpu.statFuBusy::SimdPredAlu                  0      0.00%     86.20% # attempts to use FU when none available (Count)
system.cpu.statFuBusy::Matrix                       0      0.00%     86.20% # attempts to use FU when none available (Count)
system.cpu.statFuBusy::MatrixMov                    0      0.00%     86.20% # attempts to use FU when none available (Count)
system.cpu.statFuBusy::MatrixOP                     0      0.00%     86.20% # attempts to use FU when none available (Count)
system.cpu.statFuBusy::MemRead                 174381      7.17%     93.36% # attempts to use FU when none available (Count)
system.cpu.statFuBusy::MemWrite                159065      6.54%     99.90% # attempts to use FU when none available (Count)
system.cpu.statFuBusy::FloatMemRead              2119      0.09%     99.99% # attempts to use FU when none available (Count)
system.cpu.statFuBusy::FloatMemWrite              283      0.01%    100.00% # attempts to use FU when none available (Count)
system.cpu.statFuBusy::IprAccess                    0      0.00%    100.00% # attempts to use FU when none available (Count)
system.cpu.statFuBusy::InstPrefetch                 0      0.00%    100.00% # attempts to use FU when none available (Count)
system.cpu.statFuBusy::SimdUnitStrideLoad            0      0.00%    100.00% # attempts to use FU when none available (Count)
system.cpu.statFuBusy::SimdUnitStrideStore            0      0.00%    100.00% # attempts to use FU when none available (Count)
system.cpu.statFuBusy::SimdUnitStrideMaskLoad            0      0.00%    100.00% # attempts to use FU when none available (Count)
system.cpu.statFuBusy::SimdUnitStrideMaskStore            0      0.00%    100.00% # attempts to use FU when none available (Count)
system.cpu.statFuBusy::SimdStridedLoad              0      0.00%    100.00% # attempts to use FU when none available (Count)
system.cpu.statFuBusy::SimdStridedStore             0      0.00%    100.00% # attempts to use FU when none available (Count)
system.cpu.statFuBusy::SimdIndexedLoad              0      0.00%    100.00% # attempts to use FU when none available (Count)
system.cpu.statFuBusy::SimdIndexedStore             0      0.00%    100.00% # attempts to use FU when none available (Count)
system.cpu.statFuBusy::SimdWholeRegisterLoad            0      0.00%    100.00% # attempts to use FU when none available (Count)
system.cpu.statFuBusy::SimdWholeRegisterStore            0      0.00%    100.00% # attempts to use FU when none available (Count)
system.cpu.statFuBusy::SimdUnitStrideFaultOnlyFirstLoad            0      0.00%    100.00% # attempts to use FU when none available (Count)
system.cpu.statFuBusy::SimdUnitStrideSegmentedLoad            0      0.00%    100.00% # attempts to use FU when none available (Count)
system.cpu.statFuBusy::SimdUnitStrideSegmentedStore            0      0.00%    100.00% # attempts to use FU when none available (Count)
system.cpu.statFuBusy::SimdExt                      0      0.00%    100.00% # attempts to use FU when none available (Count)
system.cpu.statFuBusy::SimdFloatExt                 0      0.00%    100.00% # attempts to use FU when none available (Count)
system.cpu.statFuBusy::SimdConfig                   0      0.00%    100.00% # attempts to use FU when none available (Count)
system.cpu.statIssuedInstType_0::No_OpClass       323724      0.16%      0.16% # Number of instructions issued per FU type, per thread (Count)
system.cpu.statIssuedInstType_0::IntAlu     163665409     79.09%     79.24% # Number of instructions issued per FU type, per thread (Count)
system.cpu.statIssuedInstType_0::IntMult       575944      0.28%     79.52% # Number of instructions issued per FU type, per thread (Count)
system.cpu.statIssuedInstType_0::IntDiv         43824      0.02%     79.54% # Number of instructions issued per FU type, per thread (Count)
system.cpu.statIssuedInstType_0::FloatAdd         8912      0.00%     79.55% # Number of instructions issued per FU type, per thread (Count)
system.cpu.statIssuedInstType_0::FloatCmp            0      0.00%     79.55% # Number of instructions issued per FU type, per thread (Count)
system.cpu.statIssuedInstType_0::FloatCvt         1728      0.00%     79.55% # Number of instructions issued per FU type, per thread (Count)
system.cpu.statIssuedInstType_0::FloatMult            0      0.00%     79.55% # Number of instructions issued per FU type, per thread (Count)
system.cpu.statIssuedInstType_0::FloatMultAcc            0      0.00%     79.55% # Number of instructions issued per FU type, per thread (Count)
system.cpu.statIssuedInstType_0::FloatDiv            0      0.00%     79.55% # Number of instructions issued per FU type, per thread (Count)
system.cpu.statIssuedInstType_0::FloatMisc            0      0.00%     79.55% # Number of instructions issued per FU type, per thread (Count)
system.cpu.statIssuedInstType_0::FloatSqrt            0      0.00%     79.55% # Number of instructions issued per FU type, per thread (Count)
system.cpu.statIssuedInstType_0::SimdAdd         7055      0.00%     79.55% # Number of instructions issued per FU type, per thread (Count)
system.cpu.statIssuedInstType_0::SimdAddAcc            0      0.00%     79.55% # Number of instructions issued per FU type, per thread (Count)
system.cpu.statIssuedInstType_0::SimdAlu        14829      0.01%     79.56% # Number of instructions issued per FU type, per thread (Count)
system.cpu.statIssuedInstType_0::SimdCmp            6      0.00%     79.56% # Number of instructions issued per FU type, per thread (Count)
system.cpu.statIssuedInstType_0::SimdCvt        14355      0.01%     79.56% # Number of instructions issued per FU type, per thread (Count)
system.cpu.statIssuedInstType_0::SimdMisc        14759      0.01%     79.57% # Number of instructions issued per FU type, per thread (Count)
system.cpu.statIssuedInstType_0::SimdMult            0      0.00%     79.57% # Number of instructions issued per FU type, per thread (Count)
system.cpu.statIssuedInstType_0::SimdMultAcc            0      0.00%     79.57% # Number of instructions issued per FU type, per thread (Count)
system.cpu.statIssuedInstType_0::SimdMatMultAcc            0      0.00%     79.57% # Number of instructions issued per FU type, per thread (Count)
system.cpu.statIssuedInstType_0::SimdShift         3021      0.00%     79.57% # Number of instructions issued per FU type, per thread (Count)
system.cpu.statIssuedInstType_0::SimdShiftAcc            0      0.00%     79.57% # Number of instructions issued per FU type, per thread (Count)
system.cpu.statIssuedInstType_0::SimdDiv            0      0.00%     79.57% # Number of instructions issued per FU type, per thread (Count)
system.cpu.statIssuedInstType_0::SimdSqrt            0      0.00%     79.57% # Number of instructions issued per FU type, per thread (Count)
system.cpu.statIssuedInstType_0::SimdFloatAdd           14      0.00%     79.57% # Number of instructions issued per FU type, per thread (Count)
system.cpu.statIssuedInstType_0::SimdFloatAlu            0      0.00%     79.57% # Number of instructions issued per FU type, per thread (Count)
system.cpu.statIssuedInstType_0::SimdFloatCmp            0      0.00%     79.57% # Number of instructions issued per FU type, per thread (Count)
system.cpu.statIssuedInstType_0::SimdFloatCvt           43      0.00%     79.57% # Number of instructions issued per FU type, per thread (Count)
system.cpu.statIssuedInstType_0::SimdFloatDiv           12      0.00%     79.57% # Number of instructions issued per FU type, per thread (Count)
system.cpu.statIssuedInstType_0::SimdFloatMisc            0      0.00%     79.57% # Number of instructions issued per FU type, per thread (Count)
system.cpu.statIssuedInstType_0::SimdFloatMult            0      0.00%     79.57% # Number of instructions issued per FU type, per thread (Count)
system.cpu.statIssuedInstType_0::SimdFloatMultAcc            0      0.00%     79.57% # Number of instructions issued per FU type, per thread (Count)
system.cpu.statIssuedInstType_0::SimdFloatMatMultAcc            0      0.00%     79.57% # Number of instructions issued per FU type, per thread (Count)
system.cpu.statIssuedInstType_0::SimdFloatSqrt            2      0.00%     79.57% # Number of instructions issued per FU type, per thread (Count)
system.cpu.statIssuedInstType_0::SimdReduceAdd            0      0.00%     79.57% # Number of instructions issued per FU type, per thread (Count)
system.cpu.statIssuedInstType_0::SimdReduceAlu            0      0.00%     79.57% # Number of instructions issued per FU type, per thread (Count)
system.cpu.statIssuedInstType_0::SimdReduceCmp            0      0.00%     79.57% # Number of instructions issued per FU type, per thread (Count)
system.cpu.statIssuedInstType_0::SimdFloatReduceAdd            0      0.00%     79.57% # Number of instructions issued per FU type, per thread (Count)
system.cpu.statIssuedInstType_0::SimdFloatReduceCmp            0      0.00%     79.57% # Number of instructions issued per FU type, per thread (Count)
system.cpu.statIssuedInstType_0::SimdAes            0      0.00%     79.57% # Number of instructions issued per FU type, per thread (Count)
system.cpu.statIssuedInstType_0::SimdAesMix            0      0.00%     79.57% # Number of instructions issued per FU type, per thread (Count)
system.cpu.statIssuedInstType_0::SimdSha1Hash            0      0.00%     79.57% # Number of instructions issued per FU type, per thread (Count)
system.cpu.statIssuedInstType_0::SimdSha1Hash2            0      0.00%     79.57% # Number of instructions issued per FU type, per thread (Count)
system.cpu.statIssuedInstType_0::SimdSha256Hash            0      0.00%     79.57% # Number of instructions issued per FU type, per thread (Count)
system.cpu.statIssuedInstType_0::SimdSha256Hash2            0      0.00%     79.57% # Number of instructions issued per FU type, per thread (Count)
system.cpu.statIssuedInstType_0::SimdShaSigma2            0      0.00%     79.57% # Number of instructions issued per FU type, per thread (Count)
system.cpu.statIssuedInstType_0::SimdShaSigma3            0      0.00%     79.57% # Number of instructions issued per FU type, per thread (Count)
system.cpu.statIssuedInstType_0::SimdPredAlu            0      0.00%     79.57% # Number of instructions issued per FU type, per thread (Count)
system.cpu.statIssuedInstType_0::Matrix             0      0.00%     79.57% # Number of instructions issued per FU type, per thread (Count)
system.cpu.statIssuedInstType_0::MatrixMov            0      0.00%     79.57% # Number of instructions issued per FU type, per thread (Count)
system.cpu.statIssuedInstType_0::MatrixOP            0      0.00%     79.57% # Number of instructions issued per FU type, per thread (Count)
system.cpu.statIssuedInstType_0::MemRead     35832373     17.31%     96.89% # Number of instructions issued per FU type, per thread (Count)
system.cpu.statIssuedInstType_0::MemWrite      6361175      3.07%     99.96% # Number of instructions issued per FU type, per thread (Count)
system.cpu.statIssuedInstType_0::FloatMemRead        48498      0.02%     99.98% # Number of instructions issued per FU type, per thread (Count)
system.cpu.statIssuedInstType_0::FloatMemWrite        31045      0.02%    100.00% # Number of instructions issued per FU type, per thread (Count)
system.cpu.statIssuedInstType_0::IprAccess            0      0.00%    100.00% # Number of instructions issued per FU type, per thread (Count)
system.cpu.statIssuedInstType_0::InstPrefetch            0      0.00%    100.00% # Number of instructions issued per FU type, per thread (Count)
system.cpu.statIssuedInstType_0::SimdUnitStrideLoad            0      0.00%    100.00% # Number of instructions issued per FU type, per thread (Count)
system.cpu.statIssuedInstType_0::SimdUnitStrideStore            0      0.00%    100.00% # Number of instructions issued per FU type, per thread (Count)
system.cpu.statIssuedInstType_0::SimdUnitStrideMaskLoad            0      0.00%    100.00% # Number of instructions issued per FU type, per thread (Count)
system.cpu.statIssuedInstType_0::SimdUnitStrideMaskStore            0      0.00%    100.00% # Number of instructions issued per FU type, per thread (Count)
system.cpu.statIssuedInstType_0::SimdStridedLoad            0      0.00%    100.00% # Number of instructions issued per FU type, per thread (Count)
system.cpu.statIssuedInstType_0::SimdStridedStore            0      0.00%    100.00% # Number of instructions issued per FU type, per thread (Count)
system.cpu.statIssuedInstType_0::SimdIndexedLoad            0      0.00%    100.00% # Number of instructions issued per FU type, per thread (Count)
system.cpu.statIssuedInstType_0::SimdIndexedStore            0      0.00%    100.00% # Number of instructions issued per FU type, per thread (Count)
system.cpu.statIssuedInstType_0::SimdWholeRegisterLoad            0      0.00%    100.00% # Number of instructions issued per FU type, per thread (Count)
system.cpu.statIssuedInstType_0::SimdWholeRegisterStore            0      0.00%    100.00% # Number of instructions issued per FU type, per thread (Count)
system.cpu.statIssuedInstType_0::SimdUnitStrideFaultOnlyFirstLoad            0      0.00%    100.00% # Number of instructions issued per FU type, per thread (Count)
system.cpu.statIssuedInstType_0::SimdUnitStrideSegmentedLoad            0      0.00%    100.00% # Number of instructions issued per FU type, per thread (Count)
system.cpu.statIssuedInstType_0::SimdUnitStrideSegmentedStore            0      0.00%    100.00% # Number of instructions issued per FU type, per thread (Count)
system.cpu.statIssuedInstType_0::SimdExt            0      0.00%    100.00% # Number of instructions issued per FU type, per thread (Count)
system.cpu.statIssuedInstType_0::SimdFloatExt            0      0.00%    100.00% # Number of instructions issued per FU type, per thread (Count)
system.cpu.statIssuedInstType_0::SimdConfig            0      0.00%    100.00% # Number of instructions issued per FU type, per thread (Count)
system.cpu.statIssuedInstType_0::total      206946728                       # Number of instructions issued per FU type, per thread (Count)
system.cpu.issueRate                         0.993415                       # Inst issue rate ((Count/Cycle))
system.cpu.fuBusy                             2433426                       # FU busy when requested (Count)
system.cpu.fuBusyRate                        0.011759                       # FU busy rate (busy events/executed inst) ((Count/Count))
system.cpu.intInstQueueReads                622392782                       # Number of integer instruction queue reads (Count)
system.cpu.intInstQueueWrites               241395830                       # Number of integer instruction queue writes (Count)
system.cpu.intInstQueueWakeupAccesses       195961505                       # Number of integer instruction queue wakeup accesses (Count)
system.cpu.fpInstQueueReads                    300888                       # Number of floating instruction queue reads (Count)
system.cpu.fpInstQueueWrites                   146144                       # Number of floating instruction queue writes (Count)
system.cpu.fpInstQueueWakeupAccesses           118793                       # Number of floating instruction queue wakeup accesses (Count)
system.cpu.vecInstQueueReads                        0                       # Number of vector instruction queue reads (Count)
system.cpu.vecInstQueueWrites                       0                       # Number of vector instruction queue writes (Count)
system.cpu.vecInstQueueWakeupAccesses               0                       # Number of vector instruction queue wakeup accesses (Count)
system.cpu.intAluAccesses                   208904880                       # Number of integer alu accesses (Count)
system.cpu.fpAluAccesses                       151550                       # Number of floating point alu accesses (Count)
system.cpu.vecAluAccesses                           0                       # Number of vector alu accesses (Count)
system.cpu.numSquashedInsts                    584997                       # Number of squashed instructions skipped in execute (Count)
system.cpu.numSwp                                   0                       # Number of swp insts executed (Count)
system.cpu.timesIdled                          458103                       # Number of times that the entire CPU went into an idle state and unscheduled itself (Count)
system.cpu.idleCycles                         2044524                       # Total number of cycles that the CPU has spent unscheduled due to idling (Cycle)
system.cpu.MemDepUnit__0.insertedLoads       28724428                       # Number of loads inserted to the mem dependence unit. (Count)
system.cpu.MemDepUnit__0.insertedStores       6832975                       # Number of stores inserted to the mem dependence unit. (Count)
system.cpu.MemDepUnit__0.conflictingLoads      2966501                       # Number of conflicting loads. (Count)
system.cpu.MemDepUnit__0.conflictingStores       987855                       # Number of conflicting stores. (Count)
system.cpu.MemDepUnit__1.insertedLoads              0                       # Number of loads inserted to the mem dependence unit. (Count)
system.cpu.MemDepUnit__1.insertedStores             0                       # Number of stores inserted to the mem dependence unit. (Count)
system.cpu.MemDepUnit__1.conflictingLoads            0                       # Number of conflicting loads. (Count)
system.cpu.MemDepUnit__1.conflictingStores            0                       # Number of conflicting stores. (Count)
system.cpu.MemDepUnit__2.insertedLoads              0                       # Number of loads inserted to the mem dependence unit. (Count)
system.cpu.MemDepUnit__2.insertedStores             0                       # Number of stores inserted to the mem dependence unit. (Count)
system.cpu.MemDepUnit__2.conflictingLoads            0                       # Number of conflicting loads. (Count)
system.cpu.MemDepUnit__2.conflictingStores            0                       # Number of conflicting stores. (Count)
system.cpu.MemDepUnit__3.insertedLoads              0                       # Number of loads inserted to the mem dependence unit. (Count)
system.cpu.MemDepUnit__3.insertedStores             0                       # Number of stores inserted to the mem dependence unit. (Count)
system.cpu.MemDepUnit__3.conflictingLoads            0                       # Number of conflicting loads. (Count)
system.cpu.MemDepUnit__3.conflictingStores            0                       # Number of conflicting stores. (Count)
system.cpu.branchPred.lookups_0::NoBranch         1918      0.01%      0.01% # Number of BP lookups (Count)
system.cpu.branchPred.lookups_0::Return        809415      2.88%      2.88% # Number of BP lookups (Count)
system.cpu.branchPred.lookups_0::CallDirect       725189      2.58%      5.46% # Number of BP lookups (Count)
system.cpu.branchPred.lookups_0::CallIndirect         1303      0.00%      5.46% # Number of BP lookups (Count)
system.cpu.branchPred.lookups_0::DirectCond     24123302     85.69%     91.15% # Number of BP lookups (Count)
system.cpu.branchPred.lookups_0::DirectUncond      2348533      8.34%     99.49% # Number of BP lookups (Count)
system.cpu.branchPred.lookups_0::IndirectCond            0      0.00%     99.49% # Number of BP lookups (Count)
system.cpu.branchPred.lookups_0::IndirectUncond       142776      0.51%    100.00% # Number of BP lookups (Count)
system.cpu.branchPred.lookups_0::total       28152436                       # Number of BP lookups (Count)
system.cpu.branchPred.squashes_0::NoBranch         1624      0.03%      0.03% # Number of branches that got squashed (completely removed) as an earlier branch was mispredicted. (Count)
system.cpu.branchPred.squashes_0::Return       185051      3.37%      3.40% # Number of branches that got squashed (completely removed) as an earlier branch was mispredicted. (Count)
system.cpu.branchPred.squashes_0::CallDirect       101509      1.85%      5.25% # Number of branches that got squashed (completely removed) as an earlier branch was mispredicted. (Count)
system.cpu.branchPred.squashes_0::CallIndirect          615      0.01%      5.26% # Number of branches that got squashed (completely removed) as an earlier branch was mispredicted. (Count)
system.cpu.branchPred.squashes_0::DirectCond      4944248     90.06%     95.32% # Number of branches that got squashed (completely removed) as an earlier branch was mispredicted. (Count)
system.cpu.branchPred.squashes_0::DirectUncond       250958      4.57%     99.89% # Number of branches that got squashed (completely removed) as an earlier branch was mispredicted. (Count)
system.cpu.branchPred.squashes_0::IndirectCond            0      0.00%     99.89% # Number of branches that got squashed (completely removed) as an earlier branch was mispredicted. (Count)
system.cpu.branchPred.squashes_0::IndirectUncond         5958      0.11%    100.00% # Number of branches that got squashed (completely removed) as an earlier branch was mispredicted. (Count)
system.cpu.branchPred.squashes_0::total       5489963                       # Number of branches that got squashed (completely removed) as an earlier branch was mispredicted. (Count)
system.cpu.branchPred.corrected_0::NoBranch          432      0.05%      0.05% # Number of branches that got corrected but not yet commited. Branches get corrected by decode or after execute. Also a branch misprediction can be detected out-of-order. Therefore, a corrected branch might not end up beeing committed in case an even earlier branch was mispredicted (Count)
system.cpu.branchPred.corrected_0::Return          122      0.02%      0.07% # Number of branches that got corrected but not yet commited. Branches get corrected by decode or after execute. Also a branch misprediction can be detected out-of-order. Therefore, a corrected branch might not end up beeing committed in case an even earlier branch was mispredicted (Count)
system.cpu.branchPred.corrected_0::CallDirect         1900      0.24%      0.31% # Number of branches that got corrected but not yet commited. Branches get corrected by decode or after execute. Also a branch misprediction can be detected out-of-order. Therefore, a corrected branch might not end up beeing committed in case an even earlier branch was mispredicted (Count)
system.cpu.branchPred.corrected_0::CallIndirect          268      0.03%      0.35% # Number of branches that got corrected but not yet commited. Branches get corrected by decode or after execute. Also a branch misprediction can be detected out-of-order. Therefore, a corrected branch might not end up beeing committed in case an even earlier branch was mispredicted (Count)
system.cpu.branchPred.corrected_0::DirectCond       665992     84.49%     84.84% # Number of branches that got corrected but not yet commited. Branches get corrected by decode or after execute. Also a branch misprediction can be detected out-of-order. Therefore, a corrected branch might not end up beeing committed in case an even earlier branch was mispredicted (Count)
system.cpu.branchPred.corrected_0::DirectUncond       118074     14.98%     99.82% # Number of branches that got corrected but not yet commited. Branches get corrected by decode or after execute. Also a branch misprediction can be detected out-of-order. Therefore, a corrected branch might not end up beeing committed in case an even earlier branch was mispredicted (Count)
system.cpu.branchPred.corrected_0::IndirectCond            0      0.00%     99.82% # Number of branches that got corrected but not yet commited. Branches get corrected by decode or after execute. Also a branch misprediction can be detected out-of-order. Therefore, a corrected branch might not end up beeing committed in case an even earlier branch was mispredicted (Count)
system.cpu.branchPred.corrected_0::IndirectUncond         1441      0.18%    100.00% # Number of branches that got corrected but not yet commited. Branches get corrected by decode or after execute. Also a branch misprediction can be detected out-of-order. Therefore, a corrected branch might not end up beeing committed in case an even earlier branch was mispredicted (Count)
system.cpu.branchPred.corrected_0::total       788229                       # Number of branches that got corrected but not yet commited. Branches get corrected by decode or after execute. Also a branch misprediction can be detected out-of-order. Therefore, a corrected branch might not end up beeing committed in case an even earlier branch was mispredicted (Count)
system.cpu.branchPred.earlyResteers_0::NoBranch            0                       # Number of branches that got redirected after decode. (Count)
system.cpu.branchPred.earlyResteers_0::Return            0                       # Number of branches that got redirected after decode. (Count)
system.cpu.branchPred.earlyResteers_0::CallDirect            0                       # Number of branches that got redirected after decode. (Count)
system.cpu.branchPred.earlyResteers_0::CallIndirect            0                       # Number of branches that got redirected after decode. (Count)
system.cpu.branchPred.earlyResteers_0::DirectCond            0                       # Number of branches that got redirected after decode. (Count)
system.cpu.branchPred.earlyResteers_0::DirectUncond            0                       # Number of branches that got redirected after decode. (Count)
system.cpu.branchPred.earlyResteers_0::IndirectCond            0                       # Number of branches that got redirected after decode. (Count)
system.cpu.branchPred.earlyResteers_0::IndirectUncond            0                       # Number of branches that got redirected after decode. (Count)
system.cpu.branchPred.earlyResteers_0::total            0                       # Number of branches that got redirected after decode. (Count)
system.cpu.branchPred.committed_0::NoBranch          294      0.00%      0.00% # Number of branches finally committed  (Count)
system.cpu.branchPred.committed_0::Return       624363      2.76%      2.76% # Number of branches finally committed  (Count)
system.cpu.branchPred.committed_0::CallDirect       623680      2.75%      5.51% # Number of branches finally committed  (Count)
system.cpu.branchPred.committed_0::CallIndirect          688      0.00%      5.51% # Number of branches finally committed  (Count)
system.cpu.branchPred.committed_0::DirectCond     19179054     84.63%     90.14% # Number of branches finally committed  (Count)
system.cpu.branchPred.committed_0::DirectUncond      2097575      9.26%     99.40% # Number of branches finally committed  (Count)
system.cpu.branchPred.committed_0::IndirectCond            0      0.00%     99.40% # Number of branches finally committed  (Count)
system.cpu.branchPred.committed_0::IndirectUncond       136818      0.60%    100.00% # Number of branches finally committed  (Count)
system.cpu.branchPred.committed_0::total     22662472                       # Number of branches finally committed  (Count)
system.cpu.branchPred.mispredicted_0::NoBranch          294      0.05%      0.05% # Number of committed branches that were mispredicted. (Count)
system.cpu.branchPred.mispredicted_0::Return          115      0.02%      0.06% # Number of committed branches that were mispredicted. (Count)
system.cpu.branchPred.mispredicted_0::CallDirect         1144      0.18%      0.25% # Number of committed branches that were mispredicted. (Count)
system.cpu.branchPred.mispredicted_0::CallIndirect          248      0.04%      0.29% # Number of committed branches that were mispredicted. (Count)
system.cpu.branchPred.mispredicted_0::DirectCond       554508     87.94%     88.22% # Number of committed branches that were mispredicted. (Count)
system.cpu.branchPred.mispredicted_0::DirectUncond        72867     11.56%     99.78% # Number of committed branches that were mispredicted. (Count)
system.cpu.branchPred.mispredicted_0::IndirectCond            0      0.00%     99.78% # Number of committed branches that were mispredicted. (Count)
system.cpu.branchPred.mispredicted_0::IndirectUncond         1391      0.22%    100.00% # Number of committed branches that were mispredicted. (Count)
system.cpu.branchPred.mispredicted_0::total       630567                       # Number of committed branches that were mispredicted. (Count)
system.cpu.branchPred.targetProvider_0::NoTarget     12573985     44.66%     44.66% # The component providing the target for taken branches (Count)
system.cpu.branchPred.targetProvider_0::BTB     14632709     51.98%     96.64% # The component providing the target for taken branches (Count)
system.cpu.branchPred.targetProvider_0::RAS       809415      2.88%     99.52% # The component providing the target for taken branches (Count)
system.cpu.branchPred.targetProvider_0::Indirect       136327      0.48%    100.00% # The component providing the target for taken branches (Count)
system.cpu.branchPred.targetProvider_0::total     28152436                       # The component providing the target for taken branches (Count)
system.cpu.branchPred.targetWrong_0::NoBranch       309092     39.32%     39.32% # Number of branches where the target was incorrect or not available at prediction time. (Count)
system.cpu.branchPred.targetWrong_0::Return       476634     60.64%     99.96% # Number of branches where the target was incorrect or not available at prediction time. (Count)
system.cpu.branchPred.targetWrong_0::CallDirect          122      0.02%     99.98% # Number of branches where the target was incorrect or not available at prediction time. (Count)
system.cpu.branchPred.targetWrong_0::CallIndirect          172      0.02%    100.00% # Number of branches where the target was incorrect or not available at prediction time. (Count)
system.cpu.branchPred.targetWrong_0::DirectCond            0      0.00%    100.00% # Number of branches where the target was incorrect or not available at prediction time. (Count)
system.cpu.branchPred.targetWrong_0::DirectUncond            0      0.00%    100.00% # Number of branches where the target was incorrect or not available at prediction time. (Count)
system.cpu.branchPred.targetWrong_0::IndirectCond            0      0.00%    100.00% # Number of branches where the target was incorrect or not available at prediction time. (Count)
system.cpu.branchPred.targetWrong_0::IndirectUncond            0      0.00%    100.00% # Number of branches where the target was incorrect or not available at prediction time. (Count)
system.cpu.branchPred.targetWrong_0::total       786020                       # Number of branches where the target was incorrect or not available at prediction time. (Count)
system.cpu.branchPred.condPredicted          24125220                       # Number of conditional branches predicted (Count)
system.cpu.branchPred.condPredictedTaken     11567059                       # Number of conditional branches predicted as taken (Count)
system.cpu.branchPred.condIncorrect            788229                       # Number of conditional branches incorrect (Count)
system.cpu.branchPred.predTakenBTBMiss           3896                       # Number of branches predicted taken but missed in BTB (Count)
system.cpu.branchPred.NotTakenMispredicted       481330                       # Number branches predicted 'not taken' but turned out to be taken (Count)
system.cpu.branchPred.TakenMispredicted        306899                       # Number branches predicted taken but are actually not taken (Count)
system.cpu.branchPred.BTBLookups             28152436                       # Number of BTB lookups (Count)
system.cpu.branchPred.BTBUpdates               479067                       # Number of BTB updates (Count)
system.cpu.branchPred.BTBHits                20338605                       # Number of BTB hits (Count)
system.cpu.branchPred.BTBHitRatio            0.722446                       # BTB Hit Ratio (Ratio)
system.cpu.branchPred.BTBMispredicted            4930                       # Number BTB mispredictions. No target found or target wrong (Count)
system.cpu.branchPred.indirectLookups          144079                       # Number of indirect predictor lookups. (Count)
system.cpu.branchPred.indirectHits             136327                       # Number of indirect target hits. (Count)
system.cpu.branchPred.indirectMisses             7752                       # Number of indirect misses. (Count)
system.cpu.branchPred.indirectMispredicted            0                       # Number of mispredicted indirect branches. (Count)
system.cpu.branchPred.btb.lookups::NoBranch         1918      0.01%      0.01% # Number of BTB lookups (Count)
system.cpu.branchPred.btb.lookups::Return       809415      2.88%      2.88% # Number of BTB lookups (Count)
system.cpu.branchPred.btb.lookups::CallDirect       725189      2.58%      5.46% # Number of BTB lookups (Count)
system.cpu.branchPred.btb.lookups::CallIndirect         1303      0.00%      5.46% # Number of BTB lookups (Count)
system.cpu.branchPred.btb.lookups::DirectCond     24123302     85.69%     91.15% # Number of BTB lookups (Count)
system.cpu.branchPred.btb.lookups::DirectUncond      2348533      8.34%     99.49% # Number of BTB lookups (Count)
system.cpu.branchPred.btb.lookups::IndirectCond            0      0.00%     99.49% # Number of BTB lookups (Count)
system.cpu.branchPred.btb.lookups::IndirectUncond       142776      0.51%    100.00% # Number of BTB lookups (Count)
system.cpu.branchPred.btb.lookups::total     28152436                       # Number of BTB lookups (Count)
system.cpu.branchPred.btb.misses::NoBranch          332      0.00%      0.00% # Number of BTB misses (Count)
system.cpu.branchPred.btb.misses::Return       809295     10.36%     10.36% # Number of BTB misses (Count)
system.cpu.branchPred.btb.misses::CallDirect         2446      0.03%     10.39% # Number of BTB misses (Count)
system.cpu.branchPred.btb.misses::CallIndirect         1302      0.02%     10.41% # Number of BTB misses (Count)
system.cpu.branchPred.btb.misses::DirectCond      6856552     87.75%     98.16% # Number of BTB misses (Count)
system.cpu.branchPred.btb.misses::DirectUncond         1128      0.01%     98.17% # Number of BTB misses (Count)
system.cpu.branchPred.btb.misses::IndirectCond            0      0.00%     98.17% # Number of BTB misses (Count)
system.cpu.branchPred.btb.misses::IndirectUncond       142776      1.83%    100.00% # Number of BTB misses (Count)
system.cpu.branchPred.btb.misses::total       7813831                       # Number of BTB misses (Count)
system.cpu.branchPred.btb.updates::NoBranch            0      0.00%      0.00% # Number of BTB updates (Count)
system.cpu.branchPred.btb.updates::Return            0      0.00%      0.00% # Number of BTB updates (Count)
system.cpu.branchPred.btb.updates::CallDirect         1900      0.40%      0.40% # Number of BTB updates (Count)
system.cpu.branchPred.btb.updates::CallIndirect            0      0.00%      0.40% # Number of BTB updates (Count)
system.cpu.branchPred.btb.updates::DirectCond       359093     74.96%     75.35% # Number of BTB updates (Count)
system.cpu.branchPred.btb.updates::DirectUncond       118074     24.65%    100.00% # Number of BTB updates (Count)
system.cpu.branchPred.btb.updates::IndirectCond            0      0.00%    100.00% # Number of BTB updates (Count)
system.cpu.branchPred.btb.updates::IndirectUncond            0      0.00%    100.00% # Number of BTB updates (Count)
system.cpu.branchPred.btb.updates::total       479067                       # Number of BTB updates (Count)
system.cpu.branchPred.btb.mispredict::NoBranch            0      0.00%      0.00% # Number of BTB mispredictions. No target found or target wrong. (Count)
system.cpu.branchPred.btb.mispredict::Return            0      0.00%      0.00% # Number of BTB mispredictions. No target found or target wrong. (Count)
system.cpu.branchPred.btb.mispredict::CallDirect         1900      0.40%      0.40% # Number of BTB mispredictions. No target found or target wrong. (Count)
system.cpu.branchPred.btb.mispredict::CallIndirect            0      0.00%      0.40% # Number of BTB mispredictions. No target found or target wrong. (Count)
system.cpu.branchPred.btb.mispredict::DirectCond       359093     74.96%     75.35% # Number of BTB mispredictions. No target found or target wrong. (Count)
system.cpu.branchPred.btb.mispredict::DirectUncond       118074     24.65%    100.00% # Number of BTB mispredictions. No target found or target wrong. (Count)
system.cpu.branchPred.btb.mispredict::IndirectCond            0      0.00%    100.00% # Number of BTB mispredictions. No target found or target wrong. (Count)
system.cpu.branchPred.btb.mispredict::IndirectUncond            0      0.00%    100.00% # Number of BTB mispredictions. No target found or target wrong. (Count)
system.cpu.branchPred.btb.mispredict::total       479067                       # Number of BTB mispredictions. No target found or target wrong. (Count)
system.cpu.branchPred.btb.power_state.pwrStateResidencyTicks::UNDEFINED 2777509920516                       # Cumulative time (in ticks) in various power states (Tick)
system.cpu.branchPred.indirectBranchPred.lookups       144079                       # Number of lookups (Count)
system.cpu.branchPred.indirectBranchPred.hits       136327                       # Number of hits of a tag (Count)
system.cpu.branchPred.indirectBranchPred.misses         7752                       # Number of misses (Count)
system.cpu.branchPred.indirectBranchPred.targetRecords         1709                       # Number of targets that where recorded/installed in the cache (Count)
system.cpu.branchPred.indirectBranchPred.indirectRecords       145788                       # Number of indirect branches/calls recorded in the indirect hist (Count)
system.cpu.branchPred.indirectBranchPred.speculativeOverflows            0                       # Number of times more than the allowed capacity for speculative branches/calls where in flight and destroy the path history (Count)
system.cpu.branchPred.ras.pushes               911543                       # Number of times a PC was pushed onto the RAS (Count)
system.cpu.branchPred.ras.pops                 911539                       # Number of times a PC was poped from the RAS (Count)
system.cpu.branchPred.ras.squashes             287175                       # Number of times the stack operation was squashed due to wrong speculation. (Count)
system.cpu.branchPred.ras.used                 624363                       # Number of times the RAS is the provider (Count)
system.cpu.branchPred.ras.correct              624248                       # Number of times the RAS is the provider and the prediction is correct (Count)
system.cpu.branchPred.ras.incorrect               115                       # Number of times the RAS is the provider and the prediction is wrong (Count)
system.cpu.commit.commitSquashedInsts        33051493                       # The number of squashed insts skipped by commit (Count)
system.cpu.commit.commitNonSpecStalls          367733                       # The number of times commit has been forced to stall to communicate backwards (Count)
system.cpu.commit.branchMispredicts            615702                       # The number of times a branch was mispredicted (Count)
system.cpu.commit.numCommittedDist::samples    201611213                       # Number of insts commited each cycle (Count)
system.cpu.commit.numCommittedDist::mean     0.869920                       # Number of insts commited each cycle (Count)
system.cpu.commit.numCommittedDist::stdev     1.955690                       # Number of insts commited each cycle (Count)
system.cpu.commit.numCommittedDist::underflows            0      0.00%      0.00% # Number of insts commited each cycle (Count)
system.cpu.commit.numCommittedDist::0       149333257     74.07%     74.07% # Number of insts commited each cycle (Count)
system.cpu.commit.numCommittedDist::1        17922777      8.89%     82.96% # Number of insts commited each cycle (Count)
system.cpu.commit.numCommittedDist::2         7708066      3.82%     86.78% # Number of insts commited each cycle (Count)
system.cpu.commit.numCommittedDist::3         9179567      4.55%     91.34% # Number of insts commited each cycle (Count)
system.cpu.commit.numCommittedDist::4         2329097      1.16%     92.49% # Number of insts commited each cycle (Count)
system.cpu.commit.numCommittedDist::5         3474372      1.72%     94.21% # Number of insts commited each cycle (Count)
system.cpu.commit.numCommittedDist::6         2037190      1.01%     95.23% # Number of insts commited each cycle (Count)
system.cpu.commit.numCommittedDist::7         1418491      0.70%     95.93% # Number of insts commited each cycle (Count)
system.cpu.commit.numCommittedDist::8         8208396      4.07%    100.00% # Number of insts commited each cycle (Count)
system.cpu.commit.numCommittedDist::overflows            0      0.00%    100.00% # Number of insts commited each cycle (Count)
system.cpu.commit.numCommittedDist::min_value            0                       # Number of insts commited each cycle (Count)
system.cpu.commit.numCommittedDist::max_value            8                       # Number of insts commited each cycle (Count)
system.cpu.commit.numCommittedDist::total    201611213                       # Number of insts commited each cycle (Count)
system.cpu.commit.amos                              0                       # Number of atomic instructions committed (Count)
system.cpu.commit.membars                      244492                       # Number of memory barriers committed (Count)
system.cpu.commit.functionCalls                624368                       # Number of function calls committed. (Count)
system.cpu.commit.committedInstType_0::No_OpClass       304229      0.17%      0.17% # Class of committed instruction (Count)
system.cpu.commit.committedInstType_0::IntAlu    144292652     82.27%     82.45% # Class of committed instruction (Count)
system.cpu.commit.committedInstType_0::IntMult       575103      0.33%     82.77% # Class of committed instruction (Count)
system.cpu.commit.committedInstType_0::IntDiv        39975      0.02%     82.80% # Class of committed instruction (Count)
system.cpu.commit.committedInstType_0::FloatAdd         7502      0.00%     82.80% # Class of committed instruction (Count)
system.cpu.commit.committedInstType_0::FloatCmp            0      0.00%     82.80% # Class of committed instruction (Count)
system.cpu.commit.committedInstType_0::FloatCvt         1728      0.00%     82.80% # Class of committed instruction (Count)
system.cpu.commit.committedInstType_0::FloatMult            0      0.00%     82.80% # Class of committed instruction (Count)
system.cpu.commit.committedInstType_0::FloatMultAcc            0      0.00%     82.80% # Class of committed instruction (Count)
system.cpu.commit.committedInstType_0::FloatDiv            0      0.00%     82.80% # Class of committed instruction (Count)
system.cpu.commit.committedInstType_0::FloatMisc            0      0.00%     82.80% # Class of committed instruction (Count)
system.cpu.commit.committedInstType_0::FloatSqrt            0      0.00%     82.80% # Class of committed instruction (Count)
system.cpu.commit.committedInstType_0::SimdAdd         7022      0.00%     82.81% # Class of committed instruction (Count)
system.cpu.commit.committedInstType_0::SimdAddAcc            0      0.00%     82.81% # Class of committed instruction (Count)
system.cpu.commit.committedInstType_0::SimdAlu        13655      0.01%     82.81% # Class of committed instruction (Count)
system.cpu.commit.committedInstType_0::SimdCmp            6      0.00%     82.81% # Class of committed instruction (Count)
system.cpu.commit.committedInstType_0::SimdCvt        14112      0.01%     82.82% # Class of committed instruction (Count)
system.cpu.commit.committedInstType_0::SimdMisc        14553      0.01%     82.83% # Class of committed instruction (Count)
system.cpu.commit.committedInstType_0::SimdMult            0      0.00%     82.83% # Class of committed instruction (Count)
system.cpu.commit.committedInstType_0::SimdMultAcc            0      0.00%     82.83% # Class of committed instruction (Count)
system.cpu.commit.committedInstType_0::SimdMatMultAcc            0      0.00%     82.83% # Class of committed instruction (Count)
system.cpu.commit.committedInstType_0::SimdShift         2007      0.00%     82.83% # Class of committed instruction (Count)
system.cpu.commit.committedInstType_0::SimdShiftAcc            0      0.00%     82.83% # Class of committed instruction (Count)
system.cpu.commit.committedInstType_0::SimdDiv            0      0.00%     82.83% # Class of committed instruction (Count)
system.cpu.commit.committedInstType_0::SimdSqrt            0      0.00%     82.83% # Class of committed instruction (Count)
system.cpu.commit.committedInstType_0::SimdFloatAdd           11      0.00%     82.83% # Class of committed instruction (Count)
system.cpu.commit.committedInstType_0::SimdFloatAlu            0      0.00%     82.83% # Class of committed instruction (Count)
system.cpu.commit.committedInstType_0::SimdFloatCmp            0      0.00%     82.83% # Class of committed instruction (Count)
system.cpu.commit.committedInstType_0::SimdFloatCvt           34      0.00%     82.83% # Class of committed instruction (Count)
system.cpu.commit.committedInstType_0::SimdFloatDiv            9      0.00%     82.83% # Class of committed instruction (Count)
system.cpu.commit.committedInstType_0::SimdFloatMisc            0      0.00%     82.83% # Class of committed instruction (Count)
system.cpu.commit.committedInstType_0::SimdFloatMult            0      0.00%     82.83% # Class of committed instruction (Count)
system.cpu.commit.committedInstType_0::SimdFloatMultAcc            0      0.00%     82.83% # Class of committed instruction (Count)
system.cpu.commit.committedInstType_0::SimdFloatMatMultAcc            0      0.00%     82.83% # Class of committed instruction (Count)
system.cpu.commit.committedInstType_0::SimdFloatSqrt            2      0.00%     82.83% # Class of committed instruction (Count)
system.cpu.commit.committedInstType_0::SimdReduceAdd            0      0.00%     82.83% # Class of committed instruction (Count)
system.cpu.commit.committedInstType_0::SimdReduceAlu            0      0.00%     82.83% # Class of committed instruction (Count)
system.cpu.commit.committedInstType_0::SimdReduceCmp            0      0.00%     82.83% # Class of committed instruction (Count)
system.cpu.commit.committedInstType_0::SimdFloatReduceAdd            0      0.00%     82.83% # Class of committed instruction (Count)
system.cpu.commit.committedInstType_0::SimdFloatReduceCmp            0      0.00%     82.83% # Class of committed instruction (Count)
system.cpu.commit.committedInstType_0::SimdAes            0      0.00%     82.83% # Class of committed instruction (Count)
system.cpu.commit.committedInstType_0::SimdAesMix            0      0.00%     82.83% # Class of committed instruction (Count)
system.cpu.commit.committedInstType_0::SimdSha1Hash            0      0.00%     82.83% # Class of committed instruction (Count)
system.cpu.commit.committedInstType_0::SimdSha1Hash2            0      0.00%     82.83% # Class of committed instruction (Count)
system.cpu.commit.committedInstType_0::SimdSha256Hash            0      0.00%     82.83% # Class of committed instruction (Count)
system.cpu.commit.committedInstType_0::SimdSha256Hash2            0      0.00%     82.83% # Class of committed instruction (Count)
system.cpu.commit.committedInstType_0::SimdShaSigma2            0      0.00%     82.83% # Class of committed instruction (Count)
system.cpu.commit.committedInstType_0::SimdShaSigma3            0      0.00%     82.83% # Class of committed instruction (Count)
system.cpu.commit.committedInstType_0::SimdPredAlu            0      0.00%     82.83% # Class of committed instruction (Count)
system.cpu.commit.committedInstType_0::Matrix            0      0.00%     82.83% # Class of committed instruction (Count)
system.cpu.commit.committedInstType_0::MatrixMov            0      0.00%     82.83% # Class of committed instruction (Count)
system.cpu.commit.committedInstType_0::MatrixOP            0      0.00%     82.83% # Class of committed instruction (Count)
system.cpu.commit.committedInstType_0::MemRead     24084289     13.73%     96.56% # Class of committed instruction (Count)
system.cpu.commit.committedInstType_0::MemWrite      5979532      3.41%     99.97% # Class of committed instruction (Count)
system.cpu.commit.committedInstType_0::FloatMemRead        18894      0.01%     99.98% # Class of committed instruction (Count)
system.cpu.commit.committedInstType_0::FloatMemWrite        30288      0.02%    100.00% # Class of committed instruction (Count)
system.cpu.commit.committedInstType_0::IprAccess            0      0.00%    100.00% # Class of committed instruction (Count)
system.cpu.commit.committedInstType_0::InstPrefetch            0      0.00%    100.00% # Class of committed instruction (Count)
system.cpu.commit.committedInstType_0::SimdUnitStrideLoad            0      0.00%    100.00% # Class of committed instruction (Count)
system.cpu.commit.committedInstType_0::SimdUnitStrideStore            0      0.00%    100.00% # Class of committed instruction (Count)
system.cpu.commit.committedInstType_0::SimdUnitStrideMaskLoad            0      0.00%    100.00% # Class of committed instruction (Count)
system.cpu.commit.committedInstType_0::SimdUnitStrideMaskStore            0      0.00%    100.00% # Class of committed instruction (Count)
system.cpu.commit.committedInstType_0::SimdStridedLoad            0      0.00%    100.00% # Class of committed instruction (Count)
system.cpu.commit.committedInstType_0::SimdStridedStore            0      0.00%    100.00% # Class of committed instruction (Count)
system.cpu.commit.committedInstType_0::SimdIndexedLoad            0      0.00%    100.00% # Class of committed instruction (Count)
system.cpu.commit.committedInstType_0::SimdIndexedStore            0      0.00%    100.00% # Class of committed instruction (Count)
system.cpu.commit.committedInstType_0::SimdWholeRegisterLoad            0      0.00%    100.00% # Class of committed instruction (Count)
system.cpu.commit.committedInstType_0::SimdWholeRegisterStore            0      0.00%    100.00% # Class of committed instruction (Count)
system.cpu.commit.committedInstType_0::SimdUnitStrideFaultOnlyFirstLoad            0      0.00%    100.00% # Class of committed instruction (Count)
system.cpu.commit.committedInstType_0::SimdUnitStrideSegmentedLoad            0      0.00%    100.00% # Class of committed instruction (Count)
system.cpu.commit.committedInstType_0::SimdUnitStrideSegmentedStore            0      0.00%    100.00% # Class of committed instruction (Count)
system.cpu.commit.committedInstType_0::SimdExt            0      0.00%    100.00% # Class of committed instruction (Count)
system.cpu.commit.committedInstType_0::SimdFloatExt            0      0.00%    100.00% # Class of committed instruction (Count)
system.cpu.commit.committedInstType_0::SimdConfig            0      0.00%    100.00% # Class of committed instruction (Count)
system.cpu.commit.committedInstType_0::total    175385603                       # Class of committed instruction (Count)
system.cpu.commit.commitEligibleSamples       8208396                       # number cycles where commit BW limit reached (Cycle)
system.cpu.commitStats0.numInsts             96329095                       # Number of instructions committed (thread level) (Count)
system.cpu.commitStats0.numOps              175385603                       # Number of ops (including micro ops) committed (thread level) (Count)
system.cpu.commitStats0.numInstsNotNOP       96329095                       # Number of instructions committed excluding NOPs or prefetches (Count)
system.cpu.commitStats0.numOpsNotNOP        175385603                       # Number of Ops (including micro ops) Simulated (Count)
system.cpu.commitStats0.cpi                  2.162570                       # CPI: cycles per instruction (thread level) ((Cycle/Count))
system.cpu.commitStats0.ipc                  0.462413                       # IPC: instructions per cycle (thread level) ((Count/Cycle))
system.cpu.commitStats0.numMemRefs           30113003                       # Number of memory references committed (Count)
system.cpu.commitStats0.numFpInsts             114316                       # Number of float instructions (Count)
system.cpu.commitStats0.numIntInsts         174774739                       # Number of integer instructions (Count)
system.cpu.commitStats0.numLoadInsts         24103183                       # Number of load instructions (Count)
system.cpu.commitStats0.numStoreInsts         6009820                       # Number of store instructions (Count)
system.cpu.commitStats0.numVecInsts                 0                       # Number of vector instructions (Count)
system.cpu.commitStats0.committedInstType::No_OpClass       304229      0.17%      0.17% # Class of committed instruction. (Count)
system.cpu.commitStats0.committedInstType::IntAlu    144292652     82.27%     82.45% # Class of committed instruction. (Count)
system.cpu.commitStats0.committedInstType::IntMult       575103      0.33%     82.77% # Class of committed instruction. (Count)
system.cpu.commitStats0.committedInstType::IntDiv        39975      0.02%     82.80% # Class of committed instruction. (Count)
system.cpu.commitStats0.committedInstType::FloatAdd         7502      0.00%     82.80% # Class of committed instruction. (Count)
system.cpu.commitStats0.committedInstType::FloatCmp            0      0.00%     82.80% # Class of committed instruction. (Count)
system.cpu.commitStats0.committedInstType::FloatCvt         1728      0.00%     82.80% # Class of committed instruction. (Count)
system.cpu.commitStats0.committedInstType::FloatMult            0      0.00%     82.80% # Class of committed instruction. (Count)
system.cpu.commitStats0.committedInstType::FloatMultAcc            0      0.00%     82.80% # Class of committed instruction. (Count)
system.cpu.commitStats0.committedInstType::FloatDiv            0      0.00%     82.80% # Class of committed instruction. (Count)
system.cpu.commitStats0.committedInstType::FloatMisc            0      0.00%     82.80% # Class of committed instruction. (Count)
system.cpu.commitStats0.committedInstType::FloatSqrt            0      0.00%     82.80% # Class of committed instruction. (Count)
system.cpu.commitStats0.committedInstType::SimdAdd         7022      0.00%     82.81% # Class of committed instruction. (Count)
system.cpu.commitStats0.committedInstType::SimdAddAcc            0      0.00%     82.81% # Class of committed instruction. (Count)
system.cpu.commitStats0.committedInstType::SimdAlu        13655      0.01%     82.81% # Class of committed instruction. (Count)
system.cpu.commitStats0.committedInstType::SimdCmp            6      0.00%     82.81% # Class of committed instruction. (Count)
system.cpu.commitStats0.committedInstType::SimdCvt        14112      0.01%     82.82% # Class of committed instruction. (Count)
system.cpu.commitStats0.committedInstType::SimdMisc        14553      0.01%     82.83% # Class of committed instruction. (Count)
system.cpu.commitStats0.committedInstType::SimdMult            0      0.00%     82.83% # Class of committed instruction. (Count)
system.cpu.commitStats0.committedInstType::SimdMultAcc            0      0.00%     82.83% # Class of committed instruction. (Count)
system.cpu.commitStats0.committedInstType::SimdMatMultAcc            0      0.00%     82.83% # Class of committed instruction. (Count)
system.cpu.commitStats0.committedInstType::SimdShift         2007      0.00%     82.83% # Class of committed instruction. (Count)
system.cpu.commitStats0.committedInstType::SimdShiftAcc            0      0.00%     82.83% # Class of committed instruction. (Count)
system.cpu.commitStats0.committedInstType::SimdDiv            0      0.00%     82.83% # Class of committed instruction. (Count)
system.cpu.commitStats0.committedInstType::SimdSqrt            0      0.00%     82.83% # Class of committed instruction. (Count)
system.cpu.commitStats0.committedInstType::SimdFloatAdd           11      0.00%     82.83% # Class of committed instruction. (Count)
system.cpu.commitStats0.committedInstType::SimdFloatAlu            0      0.00%     82.83% # Class of committed instruction. (Count)
system.cpu.commitStats0.committedInstType::SimdFloatCmp            0      0.00%     82.83% # Class of committed instruction. (Count)
system.cpu.commitStats0.committedInstType::SimdFloatCvt           34      0.00%     82.83% # Class of committed instruction. (Count)
system.cpu.commitStats0.committedInstType::SimdFloatDiv            9      0.00%     82.83% # Class of committed instruction. (Count)
system.cpu.commitStats0.committedInstType::SimdFloatMisc            0      0.00%     82.83% # Class of committed instruction. (Count)
system.cpu.commitStats0.committedInstType::SimdFloatMult            0      0.00%     82.83% # Class of committed instruction. (Count)
system.cpu.commitStats0.committedInstType::SimdFloatMultAcc            0      0.00%     82.83% # Class of committed instruction. (Count)
system.cpu.commitStats0.committedInstType::SimdFloatMatMultAcc            0      0.00%     82.83% # Class of committed instruction. (Count)
system.cpu.commitStats0.committedInstType::SimdFloatSqrt            2      0.00%     82.83% # Class of committed instruction. (Count)
system.cpu.commitStats0.committedInstType::SimdReduceAdd            0      0.00%     82.83% # Class of committed instruction. (Count)
system.cpu.commitStats0.committedInstType::SimdReduceAlu            0      0.00%     82.83% # Class of committed instruction. (Count)
system.cpu.commitStats0.committedInstType::SimdReduceCmp            0      0.00%     82.83% # Class of committed instruction. (Count)
system.cpu.commitStats0.committedInstType::SimdFloatReduceAdd            0      0.00%     82.83% # Class of committed instruction. (Count)
system.cpu.commitStats0.committedInstType::SimdFloatReduceCmp            0      0.00%     82.83% # Class of committed instruction. (Count)
system.cpu.commitStats0.committedInstType::SimdAes            0      0.00%     82.83% # Class of committed instruction. (Count)
system.cpu.commitStats0.committedInstType::SimdAesMix            0      0.00%     82.83% # Class of committed instruction. (Count)
system.cpu.commitStats0.committedInstType::SimdSha1Hash            0      0.00%     82.83% # Class of committed instruction. (Count)
system.cpu.commitStats0.committedInstType::SimdSha1Hash2            0      0.00%     82.83% # Class of committed instruction. (Count)
system.cpu.commitStats0.committedInstType::SimdSha256Hash            0      0.00%     82.83% # Class of committed instruction. (Count)
system.cpu.commitStats0.committedInstType::SimdSha256Hash2            0      0.00%     82.83% # Class of committed instruction. (Count)
system.cpu.commitStats0.committedInstType::SimdShaSigma2            0      0.00%     82.83% # Class of committed instruction. (Count)
system.cpu.commitStats0.committedInstType::SimdShaSigma3            0      0.00%     82.83% # Class of committed instruction. (Count)
system.cpu.commitStats0.committedInstType::SimdPredAlu            0      0.00%     82.83% # Class of committed instruction. (Count)
system.cpu.commitStats0.committedInstType::Matrix            0      0.00%     82.83% # Class of committed instruction. (Count)
system.cpu.commitStats0.committedInstType::MatrixMov            0      0.00%     82.83% # Class of committed instruction. (Count)
system.cpu.commitStats0.committedInstType::MatrixOP            0      0.00%     82.83% # Class of committed instruction. (Count)
system.cpu.commitStats0.committedInstType::MemRead     24084289     13.73%     96.56% # Class of committed instruction. (Count)
system.cpu.commitStats0.committedInstType::MemWrite      5979532      3.41%     99.97% # Class of committed instruction. (Count)
system.cpu.commitStats0.committedInstType::FloatMemRead        18894      0.01%     99.98% # Class of committed instruction. (Count)
system.cpu.commitStats0.committedInstType::FloatMemWrite        30288      0.02%    100.00% # Class of committed instruction. (Count)
system.cpu.commitStats0.committedInstType::IprAccess            0      0.00%    100.00% # Class of committed instruction. (Count)
system.cpu.commitStats0.committedInstType::InstPrefetch            0      0.00%    100.00% # Class of committed instruction. (Count)
system.cpu.commitStats0.committedInstType::SimdUnitStrideLoad            0      0.00%    100.00% # Class of committed instruction. (Count)
system.cpu.commitStats0.committedInstType::SimdUnitStrideStore            0      0.00%    100.00% # Class of committed instruction. (Count)
system.cpu.commitStats0.committedInstType::SimdUnitStrideMaskLoad            0      0.00%    100.00% # Class of committed instruction. (Count)
system.cpu.commitStats0.committedInstType::SimdUnitStrideMaskStore            0      0.00%    100.00% # Class of committed instruction. (Count)
system.cpu.commitStats0.committedInstType::SimdStridedLoad            0      0.00%    100.00% # Class of committed instruction. (Count)
system.cpu.commitStats0.committedInstType::SimdStridedStore            0      0.00%    100.00% # Class of committed instruction. (Count)
system.cpu.commitStats0.committedInstType::SimdIndexedLoad            0      0.00%    100.00% # Class of committed instruction. (Count)
system.cpu.commitStats0.committedInstType::SimdIndexedStore            0      0.00%    100.00% # Class of committed instruction. (Count)
system.cpu.commitStats0.committedInstType::SimdWholeRegisterLoad            0      0.00%    100.00% # Class of committed instruction. (Count)
system.cpu.commitStats0.committedInstType::SimdWholeRegisterStore            0      0.00%    100.00% # Class of committed instruction. (Count)
system.cpu.commitStats0.committedInstType::SimdUnitStrideFaultOnlyFirstLoad            0      0.00%    100.00% # Class of committed instruction. (Count)
system.cpu.commitStats0.committedInstType::SimdUnitStrideSegmentedLoad            0      0.00%    100.00% # Class of committed instruction. (Count)
system.cpu.commitStats0.committedInstType::SimdUnitStrideSegmentedStore            0      0.00%    100.00% # Class of committed instruction. (Count)
system.cpu.commitStats0.committedInstType::SimdExt            0      0.00%    100.00% # Class of committed instruction. (Count)
system.cpu.commitStats0.committedInstType::SimdFloatExt            0      0.00%    100.00% # Class of committed instruction. (Count)
system.cpu.commitStats0.committedInstType::SimdConfig            0      0.00%    100.00% # Class of committed instruction. (Count)
system.cpu.commitStats0.committedInstType::total    175385603                       # Class of committed instruction. (Count)
system.cpu.commitStats0.committedControl::IsControl     22662472                       # Class of control type instructions committed (Count)
system.cpu.commitStats0.committedControl::IsDirectControl     21900309                       # Class of control type instructions committed (Count)
system.cpu.commitStats0.committedControl::IsIndirectControl       761869                       # Class of control type instructions committed (Count)
system.cpu.commitStats0.committedControl::IsCondControl     19179054                       # Class of control type instructions committed (Count)
system.cpu.commitStats0.committedControl::IsUncondControl      3483124                       # Class of control type instructions committed (Count)
system.cpu.commitStats0.committedControl::IsCall       624368                       # Class of control type instructions committed (Count)
system.cpu.commitStats0.committedControl::IsReturn       624363                       # Class of control type instructions committed (Count)
system.cpu.decode.idleCycles                146304214                       # Number of cycles decode is idle (Cycle)
system.cpu.decode.blockedCycles              26264659                       # Number of cycles decode is blocked (Cycle)
system.cpu.decode.runCycles                  28893481                       # Number of cycles decode is running (Cycle)
system.cpu.decode.unblockCycles               4188961                       # Number of cycles decode is unblocking (Cycle)
system.cpu.decode.squashCycles                 622614                       # Number of cycles decode is squashing (Cycle)
system.cpu.decode.branchResolved             14371561                       # Number of times decode resolved a branch (Count)
system.cpu.decode.branchMispred                173599                       # Number of times decode detected a branch misprediction (Count)
system.cpu.decode.decodedInsts              211408576                       # Number of instructions handled by decode (Count)
system.cpu.decode.squashedInsts                610145                       # Number of squashed instructions handled by decode (Count)
system.cpu.executeStats0.numInsts           206361731                       # Number of executed instructions (Count)
system.cpu.executeStats0.numNop                     0                       # Number of nop insts executed (Count)
system.cpu.executeStats0.numBranches         24691026                       # Number of branches executed (Count)
system.cpu.executeStats0.numLoadInsts        35687731                       # Number of load instructions executed (Count)
system.cpu.executeStats0.numStoreInsts        6377778                       # Number of stores executed (Count)
system.cpu.executeStats0.instRate            0.990607                       # Inst execution rate ((Count/Cycle))
system.cpu.executeStats0.numCCRegReads      130475460                       # Number of times the CC registers were read (Count)
system.cpu.executeStats0.numCCRegWrites      71615287                       # Number of times the CC registers were written (Count)
system.cpu.executeStats0.numFpRegReads         157739                       # Number of times the floating registers were read (Count)
system.cpu.executeStats0.numFpRegWrites         78939                       # Number of times the floating registers were written (Count)
system.cpu.executeStats0.numIntRegReads     245005295                       # Number of times the integer registers were read (Count)
system.cpu.executeStats0.numIntRegWrites    141904776                       # Number of times the integer registers were written (Count)
system.cpu.executeStats0.numMemRefs          42065509                       # Number of memory refs (Count)
system.cpu.executeStats0.numMiscRegReads     93499339                       # Number of times the Misc registers were read (Count)
system.cpu.executeStats0.numMiscRegWrites          972                       # Number of times the Misc registers were written (Count)
system.cpu.executeStats0.numVecAluAccesses            0                       # Number of vector alu accesses (Count)
system.cpu.executeStats0.numDiscardedOps            0                       # Number of ops (including micro ops) which were discarded before commit (Count)
system.cpu.fetch.predictedBranches           15578451                       # Number of branches that fetch has predicted taken (Count)
system.cpu.fetch.cycles                      52272188                       # Number of cycles fetch has run and was not squashing or blocked (Cycle)
system.cpu.fetch.squashCycles                 1591734                       # Number of cycles fetch has spent squashing (Cycle)
system.cpu.fetch.miscStallCycles                20792                       # Number of cycles fetch has spent waiting on interrupts, or bad addresses, or out of MSHRs (Cycle)
system.cpu.fetch.pendingTrapStallCycles          6323                       # Number of stall cycles due to pending traps (Cycle)
system.cpu.fetch.icacheWaitRetryStallCycles         5720                       # Number of stall cycles due to full MSHR (Cycle)
[...]
system.mem_ctrl.dram.bwRead::cpu.data        37706476                       # Total read bandwidth from this memory ((Byte/Second))
system.mem_ctrl.dram.bwRead::total          276478486                       # Total read bandwidth from this memory ((Byte/Second))
system.mem_ctrl.dram.bwInstRead::cpu.inst    238772010                       # Instruction read bandwidth from this memory ((Byte/Second))
system.mem_ctrl.dram.bwInstRead::total      238772010                       # Instruction read bandwidth from this memory ((Byte/Second))
system.mem_ctrl.dram.bwWrite::cpu.data       29686245                       # Write bandwidth from this memory ((Byte/Second))
system.mem_ctrl.dram.bwWrite::total          29686245                       # Write bandwidth from this memory ((Byte/Second))
system.mem_ctrl.dram.bwTotal::cpu.inst      238772010                       # Total bandwidth to/from this memory ((Byte/Second))
system.mem_ctrl.dram.bwTotal::cpu.data       67392722                       # Total bandwidth to/from this memory ((Byte/Second))
system.mem_ctrl.dram.bwTotal::total         306164731                       # Total bandwidth to/from this memory ((Byte/Second))
system.mem_ctrl.dram.readBursts               5141003                       # Number of DRAM read bursts (Count)
system.mem_ctrl.dram.writeBursts                31608                       # Number of DRAM write bursts (Count)
system.mem_ctrl.dram.perBankRdBursts::0         84471                       # Per bank write bursts (Count)
system.mem_ctrl.dram.perBankRdBursts::1        422076                       # Per bank write bursts (Count)
system.mem_ctrl.dram.perBankRdBursts::2        201934                       # Per bank write bursts (Count)
system.mem_ctrl.dram.perBankRdBursts::3        157894                       # Per bank write bursts (Count)
system.mem_ctrl.dram.perBankRdBursts::4         38336                       # Per bank write bursts (Count)
system.mem_ctrl.dram.perBankRdBursts::5        185233                       # Per bank write bursts (Count)
system.mem_ctrl.dram.perBankRdBursts::6         77319                       # Per bank write bursts (Count)
system.mem_ctrl.dram.perBankRdBursts::7         97458                       # Per bank write bursts (Count)
system.mem_ctrl.dram.perBankRdBursts::8       1521526                       # Per bank write bursts (Count)
system.mem_ctrl.dram.perBankRdBursts::9        103290                       # Per bank write bursts (Count)
system.mem_ctrl.dram.perBankRdBursts::10      1011938                       # Per bank write bursts (Count)
system.mem_ctrl.dram.perBankRdBursts::11       382668                       # Per bank write bursts (Count)
system.mem_ctrl.dram.perBankRdBursts::12        41410                       # Per bank write bursts (Count)
system.mem_ctrl.dram.perBankRdBursts::13        37852                       # Per bank write bursts (Count)
system.mem_ctrl.dram.perBankRdBursts::14       154140                       # Per bank write bursts (Count)
system.mem_ctrl.dram.perBankRdBursts::15       623458                       # Per bank write bursts (Count)
system.mem_ctrl.dram.perBankWrBursts::0          1197                       # Per bank write bursts (Count)
system.mem_ctrl.dram.perBankWrBursts::1           947                       # Per bank write bursts (Count)
system.mem_ctrl.dram.perBankWrBursts::2          1228                       # Per bank write bursts (Count)
system.mem_ctrl.dram.perBankWrBursts::3          1173                       # Per bank write bursts (Count)
system.mem_ctrl.dram.perBankWrBursts::4          1226                       # Per bank write bursts (Count)
system.mem_ctrl.dram.perBankWrBursts::5          1231                       # Per bank write bursts (Count)
system.mem_ctrl.dram.perBankWrBursts::6          2776                       # Per bank write bursts (Count)
system.mem_ctrl.dram.perBankWrBursts::7          1464                       # Per bank write bursts (Count)
system.mem_ctrl.dram.perBankWrBursts::8          2641                       # Per bank write bursts (Count)
system.mem_ctrl.dram.perBankWrBursts::9          1459                       # Per bank write bursts (Count)
system.mem_ctrl.dram.perBankWrBursts::10        10465                       # Per bank write bursts (Count)
system.mem_ctrl.dram.perBankWrBursts::11         1309                       # Per bank write bursts (Count)
system.mem_ctrl.dram.perBankWrBursts::12         1179                       # Per bank write bursts (Count)
system.mem_ctrl.dram.perBankWrBursts::13         1055                       # Per bank write bursts (Count)
system.mem_ctrl.dram.perBankWrBursts::14         1083                       # Per bank write bursts (Count)
system.mem_ctrl.dram.perBankWrBursts::15         1175                       # Per bank write bursts (Count)
system.mem_ctrl.dram.totQLat              61454956241                       # Total ticks spent queuing (Tick)
system.mem_ctrl.dram.totBusLat            25705015000                       # Total ticks spent in databus transfers (Tick)
system.mem_ctrl.dram.totMemAccLat        157848762491                       # Total ticks spent from burst creation until serviced by the DRAM (Tick)
system.mem_ctrl.dram.avgQLat                 11953.88                       # Average queueing delay per DRAM burst ((Tick/Count))
system.mem_ctrl.dram.avgBusLat                5000.00                       # Average bus latency per DRAM burst ((Tick/Count))
system.mem_ctrl.dram.avgMemAccLat            30703.88                       # Average memory access latency per DRAM burst ((Tick/Count))
system.mem_ctrl.dram.readRowHits              3779535                       # Number of row buffer hits during reads (Count)
system.mem_ctrl.dram.writeRowHits               27969                       # Number of row buffer hits during writes (Count)
system.mem_ctrl.dram.readRowHitRate             73.52                       # Row buffer hit rate for reads (Ratio)
system.mem_ctrl.dram.writeRowHitRate            88.49                       # Row buffer hit rate for writes (Ratio)
system.mem_ctrl.dram.bytesPerActivate::samples      1365108                       # Bytes accessed per row activation (Byte)
system.mem_ctrl.dram.bytesPerActivate::mean   242.507523                       # Bytes accessed per row activation (Byte)
system.mem_ctrl.dram.bytesPerActivate::gmean   142.586939                       # Bytes accessed per row activation (Byte)
system.mem_ctrl.dram.bytesPerActivate::stdev   296.372161                       # Bytes accessed per row activation (Byte)
system.mem_ctrl.dram.bytesPerActivate::0-127       637414     46.69%     46.69% # Bytes accessed per row activation (Byte)
system.mem_ctrl.dram.bytesPerActivate::128-255       377092     27.62%     74.32% # Bytes accessed per row activation (Byte)
system.mem_ctrl.dram.bytesPerActivate::256-383        93839      6.87%     81.19% # Bytes accessed per row activation (Byte)
system.mem_ctrl.dram.bytesPerActivate::384-511        41093      3.01%     84.20% # Bytes accessed per row activation (Byte)
system.mem_ctrl.dram.bytesPerActivate::512-639        26093      1.91%     86.11% # Bytes accessed per row activation (Byte)
system.mem_ctrl.dram.bytesPerActivate::640-767        35924      2.63%     88.74% # Bytes accessed per row activation (Byte)
system.mem_ctrl.dram.bytesPerActivate::768-895        17346      1.27%     90.01% # Bytes accessed per row activation (Byte)
system.mem_ctrl.dram.bytesPerActivate::896-1023        14952      1.10%     91.11% # Bytes accessed per row activation (Byte)
system.mem_ctrl.dram.bytesPerActivate::1024-1151       121355      8.89%    100.00% # Bytes accessed per row activation (Byte)
system.mem_ctrl.dram.bytesPerActivate::total      1365108                       # Bytes accessed per row activation (Byte)
system.mem_ctrl.dram.dramBytesRead          329024192                       # Total bytes read (Byte)
system.mem_ctrl.dram.dramBytesWritten         2022912                       # Total bytes written (Byte)
system.mem_ctrl.dram.avgRdBW               630.680229                       # Average DRAM read bandwidth in MiBytes/s ((Byte/Second))
system.mem_ctrl.dram.avgWrBW                 3.877559                       # Average DRAM write bandwidth in MiBytes/s ((Byte/Second))
system.mem_ctrl.dram.peakBW                  12800.00                       # Theoretical peak bandwidth in MiByte/s ((Byte/Second))
system.mem_ctrl.dram.busUtil                     4.96                       # Data bus utilization in percentage (Ratio)
system.mem_ctrl.dram.busUtilRead                 4.93                       # Data bus utilization in percentage for reads (Ratio)
system.mem_ctrl.dram.busUtilWrite                0.03                       # Data bus utilization in percentage for writes (Ratio)
system.mem_ctrl.dram.pageHitRate                73.61                       # Row buffer hit rate, read and write combined (Ratio)
system.mem_ctrl.dram.power_state.pwrStateResidencyTicks::UNDEFINED 521697330574                       # Cumulative time (in ticks) in various power states (Tick)
system.mem_ctrl.dram.rank0.actEnergy       2995465620                       # Energy for activate commands per rank (pJ) (Joule)
system.mem_ctrl.dram.rank0.preEnergy       1592139120                       # Energy for precharge commands per rank (pJ) (Joule)
system.mem_ctrl.dram.rank0.readEnergy      9030107940                       # Energy for read commands per rank (pJ) (Joule)
system.mem_ctrl.dram.rank0.writeEnergy       58683240                       # Energy for write commands per rank (pJ) (Joule)
system.mem_ctrl.dram.rank0.refreshEnergy 41182723920.000008                       # Energy for refresh commands per rank (pJ) (Joule)
system.mem_ctrl.dram.rank0.actBackEnergy 191672201970                       # Energy for active background per rank (pJ) (Joule)
system.mem_ctrl.dram.rank0.preBackEnergy  38923605120                       # Energy for precharge background per rank (pJ) (Joule)
system.mem_ctrl.dram.rank0.actPowerDownEnergy            0                       # Energy for active power-down per rank (pJ) (Joule)
system.mem_ctrl.dram.rank0.prePowerDownEnergy            0                       # Energy for precharge power-down per rank (pJ) (Joule)
system.mem_ctrl.dram.rank0.selfRefreshEnergy            0                       # Energy for self refresh per rank (pJ) (Joule)
system.mem_ctrl.dram.rank0.totalEnergy   285454926930                       # Total energy per rank (pJ) (Joule)
system.mem_ctrl.dram.rank0.averagePower    547.165780                       # Core power per rank (mW) (Watt)
system.mem_ctrl.dram.rank0.totalIdleTime            0                       # Total Idle time Per DRAM Rank (Tick)
system.mem_ctrl.dram.rank0.pwrStateTime::IDLE  99383187459                       # Time in different power states (Tick)
system.mem_ctrl.dram.rank0.pwrStateTime::REF  17420780000                       # Time in different power states (Tick)
system.mem_ctrl.dram.rank0.pwrStateTime::SREF            0                       # Time in different power states (Tick)
system.mem_ctrl.dram.rank0.pwrStateTime::PRE_PDN            0                       # Time in different power states (Tick)
system.mem_ctrl.dram.rank0.pwrStateTime::ACT 404893363115                       # Time in different power states (Tick)
system.mem_ctrl.dram.rank0.pwrStateTime::ACT_PDN            0                       # Time in different power states (Tick)
system.mem_ctrl.dram.rank1.actEnergy       6751398360                       # Energy for activate commands per rank (pJ) (Joule)
system.mem_ctrl.dram.rank1.preEnergy       3588445740                       # Energy for precharge commands per rank (pJ) (Joule)
system.mem_ctrl.dram.rank1.readEnergy     27676653480                       # Energy for read commands per rank (pJ) (Joule)
system.mem_ctrl.dram.rank1.writeEnergy      106310520                       # Energy for write commands per rank (pJ) (Joule)
system.mem_ctrl.dram.rank1.refreshEnergy 41182723920.000008                       # Energy for refresh commands per rank (pJ) (Joule)
system.mem_ctrl.dram.rank1.actBackEnergy 225581993310                       # Energy for active background per rank (pJ) (Joule)
system.mem_ctrl.dram.rank1.preBackEnergy  10367991360                       # Energy for precharge background per rank (pJ) (Joule)
system.mem_ctrl.dram.rank1.actPowerDownEnergy            0                       # Energy for active power-down per rank (pJ) (Joule)
system.mem_ctrl.dram.rank1.prePowerDownEnergy            0                       # Energy for precharge power-down per rank (pJ) (Joule)
system.mem_ctrl.dram.rank1.selfRefreshEnergy            0                       # Energy for self refresh per rank (pJ) (Joule)
system.mem_ctrl.dram.rank1.totalEnergy   315255516690                       # Total energy per rank (pJ) (Joule)
system.mem_ctrl.dram.rank1.averagePower    604.288154                       # Core power per rank (mW) (Watt)
system.mem_ctrl.dram.rank1.totalIdleTime            0                       # Total Idle time Per DRAM Rank (Tick)
system.mem_ctrl.dram.rank1.pwrStateTime::IDLE  23274251255                       # Time in different power states (Tick)
system.mem_ctrl.dram.rank1.pwrStateTime::REF  17420780000                       # Time in different power states (Tick)
system.mem_ctrl.dram.rank1.pwrStateTime::SREF            0                       # Time in different power states (Tick)
system.mem_ctrl.dram.rank1.pwrStateTime::PRE_PDN            0                       # Time in different power states (Tick)
system.mem_ctrl.dram.rank1.pwrStateTime::ACT 481002299319                       # Time in different power states (Tick)
system.mem_ctrl.dram.rank1.pwrStateTime::ACT_PDN            0                       # Time in different power states (Tick)
system.mem_ctrl.power_state.pwrStateResidencyTicks::UNDEFINED 521697330574                       # Cumulative time (in ticks) in various power states (Tick)
system.membus.transDist::ReadReq              5286956                       # Transaction distribution (Count)
system.membus.transDist::ReadResp             5286958                       # Transaction distribution (Count)
system.membus.transDist::WriteReq             2799797                       # Transaction distribution (Count)
system.membus.transDist::WriteResp            2799797                       # Transaction distribution (Count)
system.membus.transDist::LockedRMWReadReq         2169                       # Transaction distribution (Count)
system.membus.transDist::LockedRMWReadResp         2169                       # Transaction distribution (Count)
system.membus.transDist::LockedRMWWriteReq         2169                       # Transaction distribution (Count)
system.membus.transDist::LockedRMWWriteResp         2169                       # Transaction distribution (Count)
system.membus.pktCount_system.cpu.icache_port::system.mem_ctrl.port      3892711                       # Packet count per connected requestor and responder (Count)
system.membus.pktCount_system.cpu.icache_port::total      3892711                       # Packet count per connected requestor and responder (Count)
system.membus.pktCount_system.cpu.dcache_port::system.mem_ctrl.port     12289473                       # Packet count per connected requestor and responder (Count)
system.membus.pktCount_system.cpu.dcache_port::total     12289473                       # Packet count per connected requestor and responder (Count)
system.membus.pktCount::total                16182184                       # Packet count per connected requestor and responder (Count)
system.membus.pktSize_system.cpu.icache_port::system.mem_ctrl.port    124566784                       # Cumulative packet size per connected requestor and responder (Byte)
system.membus.pktSize_system.cpu.icache_port::total    124566784                       # Cumulative packet size per connected requestor and responder (Byte)
system.membus.pktSize_system.cpu.dcache_port::system.mem_ctrl.port     35158603                       # Cumulative packet size per connected requestor and responder (Byte)
system.membus.pktSize_system.cpu.dcache_port::total     35158603                       # Cumulative packet size per connected requestor and responder (Byte)
system.membus.pktSize::total                159725387                       # Cumulative packet size per connected requestor and responder (Byte)
system.membus.snoops                                0                       # Total snoops (Count)
system.membus.snoopTraffic                          0                       # Total snoop traffic (Byte)
system.membus.snoopFanout::samples            8091091                       # Request fanout histogram (Count)
system.membus.snoopFanout::mean                     0                       # Request fanout histogram (Count)
system.membus.snoopFanout::stdev                    0                       # Request fanout histogram (Count)
system.membus.snoopFanout::underflows               0      0.00%      0.00% # Request fanout histogram (Count)
system.membus.snoopFanout::0                  8091091    100.00%    100.00% # Request fanout histogram (Count)
system.membus.snoopFanout::1                        0      0.00%    100.00% # Request fanout histogram (Count)
system.membus.snoopFanout::overflows                0      0.00%    100.00% # Request fanout histogram (Count)
system.membus.snoopFanout::min_value                0                       # Request fanout histogram (Count)
system.membus.snoopFanout::max_value                0                       # Request fanout histogram (Count)
system.membus.snoopFanout::total              8091091                       # Request fanout histogram (Count)
system.membus.power_state.pwrStateResidencyTicks::UNDEFINED 521697330574                       # Cumulative time (in ticks) in various power states (Tick)
system.membus.reqLayer2.occupancy        145237128981                       # Layer occupancy (ticks) (Tick)
system.membus.reqLayer2.utilization               0.3                       # Layer utilization (Ratio)
system.membus.respLayer1.occupancy       132793421918                       # Layer occupancy (ticks) (Tick)
system.membus.respLayer1.utilization              0.3                       # Layer utilization (Ratio)
system.membus.respLayer2.occupancy       136487969554                       # Layer occupancy (ticks) (Tick)
system.membus.respLayer2.utilization              0.3                       # Layer utilization (Ratio)
system.membus.snoop_filter.totRequests              0                       # Total number of requests made to the snoop filter. (Count)
system.membus.snoop_filter.hitSingleRequests            0                       # Number of requests hitting in the snoop filter with a single holder of the requested data. (Count)
system.membus.snoop_filter.hitMultiRequests            0                       # Number of requests hitting in the snoop filter with multiple (>1) holders of the requested data. (Count)
system.membus.snoop_filter.totSnoops                0                       # Total number of snoops made to the snoop filter. (Count)
system.membus.snoop_filter.hitSingleSnoops            0                       # Number of snoops hitting in the snoop filter with a single holder of the requested data. (Count)
system.membus.snoop_filter.hitMultiSnoops            0                       # Number of snoops hitting in the snoop filter with multiple (>1) holders of the requested data. (Count)
system.workload.inst.arm                            0                       # number of arm instructions executed (Count)
system.workload.inst.quiesce                        0                       # number of quiesce instructions executed (Count)

---------- End Simulation Statistics   ----------
