
---------- Begin Simulation Statistics ----------
simSeconds                                   1.023477                       # Number of seconds simulated (Second)
simTicks                                 1023476932437                       # Number of ticks simulated (Tick)
finalTick                                1023476932437                       # Number of ticks from beginning of simulation (restored from checkpoints and never reset) (Tick)
simFreq                                  1000000000000                       # The number of ticks per simulated second ((Tick/Second))
hostSeconds                                    555.91                       # Real time elapsed on the host (Second)
hostTickRate                               1841077969                       # The number of ticks simulated per host second (ticks/s) ((Tick/Second))
hostMemory                                    8701220                       # Number of bytes of host memory used (Byte)
simInsts                                    103509766                       # Number of instructions simulated (Count)
simOps                                      226669585                       # Number of ops (including micro ops) simulated (Count)
hostInstRate                                   186198                       # Simulator instruction rate (inst/s) ((Count/Second))
hostOpRate                                     407744                       # Simulator op (including micro ops) rate (op/s) ((Count/Second))
system.clk_domain.clock                         13333                       # Clock period in ticks (Tick)
system.clk_domain.voltage_domain.voltage            1                       # Voltage in Volts (Volt)
system.cpu.numCycles                         76762690                       # Number of cpu cycles simulated (Cycle)
system.cpu.cpi                               0.741599                       # CPI: cycles per instruction (core level) ((Cycle/Count))
system.cpu.ipc                               1.348438                       # IPC: instructions per cycle (core level) ((Count/Cycle))
system.cpu.numWorkItemsStarted                      0                       # Number of work items this cpu started (Count)
system.cpu.numWorkItemsCompleted                    0                       # Number of work items this cpu completed (Count)
system.cpu.instsAdded                       305073203                       # Number of instructions added to the IQ (excludes non-spec) (Count)
system.cpu.nonSpecInstsAdded                    11245                       # Number of non-speculative instructions added to the IQ (Count)
system.cpu.instsIssued                      268086847                       # Number of instructions issued (Count)
system.cpu.squashedInstsIssued                 468530                       # Number of squashed instructions issued (Count)
system.cpu.squashedInstsExamined             78414841                       # Number of squashed instructions iterated over during squash; mainly for profiling (Count)
system.cpu.squashedOperandsExamined         179738166                       # Number of squashed operands that are examined and possibly removed from graph (Count)
system.cpu.squashedNonSpecRemoved                4284                       # Number of squashed non-spec instructions that were removed (Count)
system.cpu.numIssuedDist::samples            76550826                       # Number of insts issued each cycle (Count)
system.cpu.numIssuedDist::mean               3.502076                       # Number of insts issued each cycle (Count)
system.cpu.numIssuedDist::stdev              2.732081                       # Number of insts issued each cycle (Count)
system.cpu.numIssuedDist::underflows                0      0.00%      0.00% # Number of insts issued each cycle (Count)
system.cpu.numIssuedDist::0                  19671612     25.70%     25.70% # Number of insts issued each cycle (Count)
system.cpu.numIssuedDist::1                   4722614      6.17%     31.87% # Number of insts issued each cycle (Count)
system.cpu.numIssuedDist::2                   4655094      6.08%     37.95% # Number of insts issued each cycle (Count)
system.cpu.numIssuedDist::3                   6357551      8.31%     46.25% # Number of insts issued each cycle (Count)
system.cpu.numIssuedDist::4                  13079620     17.09%     63.34% # Number of insts issued each cycle (Count)
system.cpu.numIssuedDist::5                   5900192      7.71%     71.05% # Number of insts issued each cycle (Count)
system.cpu.numIssuedDist::6                   8339708     10.89%     81.94% # Number of insts issued each cycle (Count)
system.cpu.numIssuedDist::7                   7471776      9.76%     91.70% # Number of insts issued each cycle (Count)
system.cpu.numIssuedDist::8                   6352659      8.30%    100.00% # Number of insts issued each cycle (Count)
system.cpu.numIssuedDist::overflows                 0      0.00%    100.00% # Number of insts issued each cycle (Count)
system.cpu.numIssuedDist::min_value                 0                       # Number of insts issued each cycle (Count)
system.cpu.numIssuedDist::max_value                 8                       # Number of insts issued each cycle (Count)
system.cpu.numIssuedDist::total              76550826                       # Number of insts issued each cycle (Count)
system.cpu.statFuBusy::No_OpClass                   0      0.00%      0.00% # attempts to use FU when none available (Count)
system.cpu.statFuBusy::IntAlu                 6143745     87.72%     87.72% # attempts to use FU when none available (Count)
system.cpu.statFuBusy::IntMult                      0      0.00%     87.72% # attempts to use FU when none available (Count)
system.cpu.statFuBusy::IntDiv                       0      0.00%     87.72% # attempts to use FU when none available (Count)
system.cpu.statFuBusy::FloatAdd                     0      0.00%     87.72% # attempts to use FU when none available (Count)
system.cpu.statFuBusy::FloatCmp                     0      0.00%     87.72% # attempts to use FU when none available (Count)
system.cpu.statFuBusy::FloatCvt                     0      0.00%     87.72% # attempts to use FU when none available (Count)
system.cpu.statFuBusy::FloatMult                    0      0.00%     87.72% # attempts to use FU when none available (Count)
system.cpu.statFuBusy::FloatMultAcc                 0      0.00%     87.72% # attempts to use FU when none available (Count)
system.cpu.statFuBusy::FloatDiv                     0      0.00%     87.72% # attempts to use FU when none available (Count)
system.cpu.statFuBusy::FloatMisc                    0      0.00%     87.72% # attempts to use FU when none available (Count)
system.cpu.statFuBusy::FloatSqrt                    0      0.00%     87.72% # attempts to use FU when none available (Count)
system.cpu.statFuBusy::SimdAdd                      2      0.00%     87.72% # attempts to use FU when none available (Count)
system.cpu.statFuBusy::SimdAddAcc                   0      0.00%     87.72% # attempts to use FU when none available (Count)
system.cpu.statFuBusy::SimdAlu                  35227      0.50%     88.23% # attempts to use FU when none available (Count)
system.cpu.statFuBusy::SimdCmp                      0      0.00%     88.23% # attempts to use FU when none available (Count)
system.cpu.statFuBusy::SimdCvt                    873      0.01%     88.24% # attempts to use FU when none available (Count)
system.cpu.statFuBusy::SimdMisc                  3777      0.05%     88.29% # attempts to use FU when none available (Count)
system.cpu.statFuBusy::SimdMult                     0      0.00%     88.29% # attempts to use FU when none available (Count)
system.cpu.statFuBusy::SimdMultAcc                  0      0.00%     88.29% # attempts to use FU when none available (Count)
system.cpu.statFuBusy::SimdMatMultAcc               0      0.00%     88.29% # attempts to use FU when none available (Count)
system.cpu.statFuBusy::SimdShift                  517      0.01%     88.30% # attempts to use FU when none available (Count)
system.cpu.statFuBusy::SimdShiftAcc                 0      0.00%     88.30% # attempts to use FU when none available (Count)
system.cpu.statFuBusy::SimdDiv                      0      0.00%     88.30% # attempts to use FU when none available (Count)
system.cpu.statFuBusy::SimdSqrt                     0      0.00%     88.30% # attempts to use FU when none available (Count)
system.cpu.statFuBusy::SimdFloatAdd                 0      0.00%     88.30% # attempts to use FU when none available (Count)
system.cpu.statFuBusy::SimdFloatAlu                 0      0.00%     88.30% # attempts to use FU when none available (Count)
system.cpu.statFuBusy::SimdFloatCmp                 0      0.00%     88.30% # attempts to use FU when none available (Count)
system.cpu.statFuBusy::SimdFloatCvt                 0      0.00%     88.30% # attempts to use FU when none available (Count)
system.cpu.statFuBusy::SimdFloatDiv                 0      0.00%     88.30% # attempts to use FU when none available (Count)
system.cpu.statFuBusy::SimdFloatMisc                0      0.00%     88.30% # attempts to use FU when none available (Count)
system.cpu.statFuBusy::SimdFloatMult                0      0.00%     88.30% # attempts to use FU when none available (Count)
system.cpu.statFuBusy::SimdFloatMultAcc             0      0.00%     88.30% # attempts to use FU when none available (Count)
system.cpu.statFuBusy::SimdFloatMatMultAcc            0      0.00%     88.30% # attempts to use FU when none available (Count)
system.cpu.statFuBusy::SimdFloatSqrt                0      0.00%     88.30% # attempts to use FU when none available (Count)
system.cpu.statFuBusy::SimdReduceAdd                0      0.00%     88.30% # attempts to use FU when none available (Count)
system.cpu.statFuBusy::SimdReduceAlu                0      0.00%     88.30% # attempts to use FU when none available (Count)
system.cpu.statFuBusy::SimdReduceCmp                0      0.00%     88.30% # attempts to use FU when none available (Count)
system.cpu.statFuBusy::SimdFloatReduceAdd            0      0.00%     88.30% # attempts to use FU when none available (Count)
system.cpu.statFuBusy::SimdFloatReduceCmp            0      0.00%     88.30% # attempts to use FU when none available (Count)
system.cpu.statFuBusy::SimdAes                      0      0.00%     88.30% # attempts to use FU when none available (Count)
system.cpu.statFuBusy::SimdAesMix                   0      0.00%     88.30% # attempts to use FU when none available (Count)
system.cpu.statFuBusy::SimdSha1Hash                 0      0.00%     88.30% # attempts to use FU when none available (Count)
system.cpu.statFuBusy::SimdSha1Hash2                0      0.00%     88.30% # attempts to use FU when none available (Count)
system.cpu.statFuBusy::SimdSha256Hash               0      0.00%     88.30% # attempts to use FU when none available (Count)
system.cpu.statFuBusy::SimdSha256Hash2              0      0.00%     88.30% # attempts to use FU when none available (Count)
system.cpu.statFuBusy::SimdShaSigma2                0      0.00%     88.30% # attempts to use FU when none available (Count)
system.cpu.statFuBusy::SimdShaSigma3                0      0.00%     88.30% # attempts to use FU when none available (Count)
system.cpu.statFuBusy::SimdPredAlu                  0      0.00%     88.30% # attempts to use FU when none available (Count)
system.cpu.statFuBusy::Matrix                       0      0.00%     88.30% # attempts to use FU when none available (Count)
system.cpu.statFuBusy::MatrixMov                    0      0.00%     88.30% # attempts to use FU when none available (Count)
system.cpu.statFuBusy::MatrixOP                     0      0.00%     88.30% # attempts to use FU when none available (Count)
system.cpu.statFuBusy::MemRead                 465104      6.64%     94.94% # attempts to use FU when none available (Count)
system.cpu.statFuBusy::MemWrite                212917      3.04%     97.98% # attempts to use FU when none available (Count)
system.cpu.statFuBusy::FloatMemRead             41067      0.59%     98.57% # attempts to use FU when none available (Count)
system.cpu.statFuBusy::FloatMemWrite           100221      1.43%    100.00% # attempts to use FU when none available (Count)
system.cpu.statFuBusy::IprAccess                    0      0.00%    100.00% # attempts to use FU when none available (Count)
system.cpu.statFuBusy::InstPrefetch                 0      0.00%    100.00% # attempts to use FU when none available (Count)
system.cpu.statFuBusy::SimdUnitStrideLoad            0      0.00%    100.00% # attempts to use FU when none available (Count)
system.cpu.statFuBusy::SimdUnitStrideStore            0      0.00%    100.00% # attempts to use FU when none available (Count)
system.cpu.statFuBusy::SimdUnitStrideMaskLoad            0      0.00%    100.00% # attempts to use FU when none available (Count)
system.cpu.statFuBusy::SimdUnitStrideMaskStore            0      0.00%    100.00% # attempts to use FU when none available (Count)
system.cpu.statFuBusy::SimdStridedLoad              0      0.00%    100.00% # attempts to use FU when none available (Count)
system.cpu.statFuBusy::SimdStridedStore             0      0.00%    100.00% # attempts to use FU when none available (Count)
system.cpu.statFuBusy::SimdIndexedLoad              0      0.00%    100.00% # attempts to use FU when none available (Count)
system.cpu.statFuBusy::SimdIndexedStore             0      0.00%    100.00% # attempts to use FU when none available (Count)
system.cpu.statFuBusy::SimdWholeRegisterLoad            0      0.00%    100.00% # attempts to use FU when none available (Count)
system.cpu.statFuBusy::SimdWholeRegisterStore            0      0.00%    100.00% # attempts to use FU when none available (Count)
system.cpu.statFuBusy::SimdUnitStrideFaultOnlyFirstLoad            0      0.00%    100.00% # attempts to use FU when none available (Count)
system.cpu.statFuBusy::SimdUnitStrideSegmentedLoad            0      0.00%    100.00% # attempts to use FU when none available (Count)
system.cpu.statFuBusy::SimdUnitStrideSegmentedStore            0      0.00%    100.00% # attempts to use FU when none available (Count)
system.cpu.statFuBusy::SimdExt                      0      0.00%    100.00% # attempts to use FU when none available (Count)
system.cpu.statFuBusy::SimdFloatExt                 0      0.00%    100.00% # attempts to use FU when none available (Count)
system.cpu.statFuBusy::SimdConfig                   0      0.00%    100.00% # attempts to use FU when none available (Count)
system.cpu.statIssuedInstType_0::No_OpClass      4562784      1.70%      1.70% # Number of instructions issued per FU type, per thread (Count)
system.cpu.statIssuedInstType_0::IntAlu     198131050     73.91%     75.61% # Number of instructions issued per FU type, per thread (Count)
system.cpu.statIssuedInstType_0::IntMult          918      0.00%     75.61% # Number of instructions issued per FU type, per thread (Count)
system.cpu.statIssuedInstType_0::IntDiv       4277352      1.60%     77.20% # Number of instructions issued per FU type, per thread (Count)
system.cpu.statIssuedInstType_0::FloatAdd       414886      0.15%     77.36% # Number of instructions issued per FU type, per thread (Count)
system.cpu.statIssuedInstType_0::FloatCmp            0      0.00%     77.36% # Number of instructions issued per FU type, per thread (Count)
system.cpu.statIssuedInstType_0::FloatCvt         1284      0.00%     77.36% # Number of instructions issued per FU type, per thread (Count)
system.cpu.statIssuedInstType_0::FloatMult            0      0.00%     77.36% # Number of instructions issued per FU type, per thread (Count)
system.cpu.statIssuedInstType_0::FloatMultAcc            0      0.00%     77.36% # Number of instructions issued per FU type, per thread (Count)
system.cpu.statIssuedInstType_0::FloatDiv            0      0.00%     77.36% # Number of instructions issued per FU type, per thread (Count)
system.cpu.statIssuedInstType_0::FloatMisc            0      0.00%     77.36% # Number of instructions issued per FU type, per thread (Count)
system.cpu.statIssuedInstType_0::FloatSqrt            0      0.00%     77.36% # Number of instructions issued per FU type, per thread (Count)
system.cpu.statIssuedInstType_0::SimdAdd       125495      0.05%     77.41% # Number of instructions issued per FU type, per thread (Count)
system.cpu.statIssuedInstType_0::SimdAddAcc            0      0.00%     77.41% # Number of instructions issued per FU type, per thread (Count)
system.cpu.statIssuedInstType_0::SimdAlu      1688050      0.63%     78.04% # Number of instructions issued per FU type, per thread (Count)
system.cpu.statIssuedInstType_0::SimdCmp          966      0.00%     78.04% # Number of instructions issued per FU type, per thread (Count)
system.cpu.statIssuedInstType_0::SimdCvt       572083      0.21%     78.25% # Number of instructions issued per FU type, per thread (Count)
system.cpu.statIssuedInstType_0::SimdMisc       789816      0.29%     78.54% # Number of instructions issued per FU type, per thread (Count)
system.cpu.statIssuedInstType_0::SimdMult            0      0.00%     78.54% # Number of instructions issued per FU type, per thread (Count)
system.cpu.statIssuedInstType_0::SimdMultAcc            0      0.00%     78.54% # Number of instructions issued per FU type, per thread (Count)
system.cpu.statIssuedInstType_0::SimdMatMultAcc            0      0.00%     78.54% # Number of instructions issued per FU type, per thread (Count)
system.cpu.statIssuedInstType_0::SimdShift        87284      0.03%     78.58% # Number of instructions issued per FU type, per thread (Count)
system.cpu.statIssuedInstType_0::SimdShiftAcc            0      0.00%     78.58% # Number of instructions issued per FU type, per thread (Count)
system.cpu.statIssuedInstType_0::SimdDiv            0      0.00%     78.58% # Number of instructions issued per FU type, per thread (Count)
system.cpu.statIssuedInstType_0::SimdSqrt            0      0.00%     78.58% # Number of instructions issued per FU type, per thread (Count)
system.cpu.statIssuedInstType_0::SimdFloatAdd          325      0.00%     78.58% # Number of instructions issued per FU type, per thread (Count)
system.cpu.statIssuedInstType_0::SimdFloatAlu            0      0.00%     78.58% # Number of instructions issued per FU type, per thread (Count)
system.cpu.statIssuedInstType_0::SimdFloatCmp            0      0.00%     78.58% # Number of instructions issued per FU type, per thread (Count)
system.cpu.statIssuedInstType_0::SimdFloatCvt         1780      0.00%     78.58% # Number of instructions issued per FU type, per thread (Count)
system.cpu.statIssuedInstType_0::SimdFloatDiv          163      0.00%     78.58% # Number of instructions issued per FU type, per thread (Count)
system.cpu.statIssuedInstType_0::SimdFloatMisc            0      0.00%     78.58% # Number of instructions issued per FU type, per thread (Count)
system.cpu.statIssuedInstType_0::SimdFloatMult          161      0.00%     78.58% # Number of instructions issued per FU type, per thread (Count)
system.cpu.statIssuedInstType_0::SimdFloatMultAcc            0      0.00%     78.58% # Number of instructions issued per FU type, per thread (Count)
system.cpu.statIssuedInstType_0::SimdFloatMatMultAcc            0      0.00%     78.58% # Number of instructions issued per FU type, per thread (Count)
system.cpu.statIssuedInstType_0::SimdFloatSqrt            0      0.00%     78.58% # Number of instructions issued per FU type, per thread (Count)
system.cpu.statIssuedInstType_0::SimdReduceAdd            0      0.00%     78.58% # Number of instructions issued per FU type, per thread (Count)
system.cpu.statIssuedInstType_0::SimdReduceAlu            0      0.00%     78.58% # Number of instructions issued per FU type, per thread (Count)
system.cpu.statIssuedInstType_0::SimdReduceCmp            0      0.00%     78.58% # Number of instructions issued per FU type, per thread (Count)
system.cpu.statIssuedInstType_0::SimdFloatReduceAdd            0      0.00%     78.58% # Number of instructions issued per FU type, per thread (Count)
system.cpu.statIssuedInstType_0::SimdFloatReduceCmp            0      0.00%     78.58% # Number of instructions issued per FU type, per thread (Count)
system.cpu.statIssuedInstType_0::SimdAes            0      0.00%     78.58% # Number of instructions issued per FU type, per thread (Count)
system.cpu.statIssuedInstType_0::SimdAesMix            0      0.00%     78.58% # Number of instructions issued per FU type, per thread (Count)
system.cpu.statIssuedInstType_0::SimdSha1Hash            0      0.00%     78.58% # Number of instructions issued per FU type, per thread (Count)
system.cpu.statIssuedInstType_0::SimdSha1Hash2            0      0.00%     78.58% # Number of instructions issued per FU type, per thread (Count)
system.cpu.statIssuedInstType_0::SimdSha256Hash            0      0.00%     78.58% # Number of instructions issued per FU type, per thread (Count)
system.cpu.statIssuedInstType_0::SimdSha256Hash2            0      0.00%     78.58% # Number of instructions issued per FU type, per thread (Count)
system.cpu.statIssuedInstType_0::SimdShaSigma2            0      0.00%     78.58% # Number of instructions issued per FU type, per thread (Count)
system.cpu.statIssuedInstType_0::SimdShaSigma3            0      0.00%     78.58% # Number of instructions issued per FU type, per thread (Count)
system.cpu.statIssuedInstType_0::SimdPredAlu            0      0.00%     78.58% # Number of instructions issued per FU type, per thread (Count)
system.cpu.statIssuedInstType_0::Matrix             0      0.00%     78.58% # Number of instructions issued per FU type, per thread (Count)
system.cpu.statIssuedInstType_0::MatrixMov            0      0.00%     78.58% # Number of instructions issued per FU type, per thread (Count)
system.cpu.statIssuedInstType_0::MatrixOP            0      0.00%     78.58% # Number of instructions issued per FU type, per thread (Count)
system.cpu.statIssuedInstType_0::MemRead     28629007     10.68%     89.26% # Number of instructions issued per FU type, per thread (Count)
system.cpu.statIssuedInstType_0::MemWrite     24983520      9.32%     98.58% # Number of instructions issued per FU type, per thread (Count)
system.cpu.statIssuedInstType_0::FloatMemRead      1529441      0.57%     99.15% # Number of instructions issued per FU type, per thread (Count)
system.cpu.statIssuedInstType_0::FloatMemWrite      2290482      0.85%    100.00% # Number of instructions issued per FU type, per thread (Count)
system.cpu.statIssuedInstType_0::IprAccess            0      0.00%    100.00% # Number of instructions issued per FU type, per thread (Count)
system.cpu.statIssuedInstType_0::InstPrefetch            0      0.00%    100.00% # Number of instructions issued per FU type, per thread (Count)
system.cpu.statIssuedInstType_0::SimdUnitStrideLoad            0      0.00%    100.00% # Number of instructions issued per FU type, per thread (Count)
system.cpu.statIssuedInstType_0::SimdUnitStrideStore            0      0.00%    100.00% # Number of instructions issued per FU type, per thread (Count)
system.cpu.statIssuedInstType_0::SimdUnitStrideMaskLoad            0      0.00%    100.00% # Number of instructions issued per FU type, per thread (Count)
system.cpu.statIssuedInstType_0::SimdUnitStrideMaskStore            0      0.00%    100.00% # Number of instructions issued per FU type, per thread (Count)
system.cpu.statIssuedInstType_0::SimdStridedLoad            0      0.00%    100.00% # Number of instructions issued per FU type, per thread (Count)
system.cpu.statIssuedInstType_0::SimdStridedStore            0      0.00%    100.00% # Number of instructions issued per FU type, per thread (Count)
system.cpu.statIssuedInstType_0::SimdIndexedLoad            0      0.00%    100.00% # Number of instructions issued per FU type, per thread (Count)
system.cpu.statIssuedInstType_0::SimdIndexedStore            0      0.00%    100.00% # Number of instructions issued per FU type, per thread (Count)
system.cpu.statIssuedInstType_0::SimdWholeRegisterLoad            0      0.00%    100.00% # Number of instructions issued per FU type, per thread (Count)
system.cpu.statIssuedInstType_0::SimdWholeRegisterStore            0      0.00%    100.00% # Number of instructions issued per FU type, per thread (Count)
system.cpu.statIssuedInstType_0::SimdUnitStrideFaultOnlyFirstLoad            0      0.00%    100.00% # Number of instructions issued per FU type, per thread (Count)
system.cpu.statIssuedInstType_0::SimdUnitStrideSegmentedLoad            0      0.00%    100.00% # Number of instructions issued per FU type, per thread (Count)
system.cpu.statIssuedInstType_0::SimdUnitStrideSegmentedStore            0      0.00%    100.00% # Number of instructions issued per FU type, per thread (Count)
system.cpu.statIssuedInstType_0::SimdExt            0      0.00%    100.00% # Number of instructions issued per FU type, per thread (Count)
system.cpu.statIssuedInstType_0::SimdFloatExt            0      0.00%    100.00% # Number of instructions issued per FU type, per thread (Count)
system.cpu.statIssuedInstType_0::SimdConfig            0      0.00%    100.00% # Number of instructions issued per FU type, per thread (Count)
system.cpu.statIssuedInstType_0::total      268086847                       # Number of instructions issued per FU type, per thread (Count)
system.cpu.issueRate                         3.492411                       # Inst issue rate ((Count/Cycle))
system.cpu.fuBusy                             7003450                       # FU busy when requested (Count)
system.cpu.fuBusyRate                        0.026124                       # FU busy rate (busy events/executed inst) ((Count/Count))
system.cpu.intInstQueueReads                603856188                       # Number of integer instruction queue reads (Count)
system.cpu.intInstQueueWrites               371863570                       # Number of integer instruction queue writes (Count)
system.cpu.intInstQueueWakeupAccesses       257147097                       # Number of integer instruction queue wakeup accesses (Count)
system.cpu.fpInstQueueReads                  16340312                       # Number of floating instruction queue reads (Count)
system.cpu.fpInstQueueWrites                 11641495                       # Number of floating instruction queue writes (Count)
system.cpu.fpInstQueueWakeupAccesses          7903511                       # Number of floating instruction queue wakeup accesses (Count)
system.cpu.vecInstQueueReads                        0                       # Number of vector instruction queue reads (Count)
system.cpu.vecInstQueueWrites                       0                       # Number of vector instruction queue writes (Count)
system.cpu.vecInstQueueWakeupAccesses               0                       # Number of vector instruction queue wakeup accesses (Count)
system.cpu.intAluAccesses                   262272124                       # Number of integer alu accesses (Count)
system.cpu.fpAluAccesses                      8255389                       # Number of floating point alu accesses (Count)
system.cpu.vecAluAccesses                           0                       # Number of vector alu accesses (Count)
system.cpu.numSquashedInsts                   2270945                       # Number of squashed instructions skipped in execute (Count)
system.cpu.numSwp                                   0                       # Number of swp insts executed (Count)
system.cpu.timesIdled                           42567                       # Number of times that the entire CPU went into an idle state and unscheduled itself (Count)
system.cpu.idleCycles                          211864                       # Total number of cycles that the CPU has spent unscheduled due to idling (Cycle)
system.cpu.MemDepUnit__0.insertedLoads       34073126                       # Number of loads inserted to the mem dependence unit. (Count)
system.cpu.MemDepUnit__0.insertedStores      31934696                       # Number of stores inserted to the mem dependence unit. (Count)
system.cpu.MemDepUnit__0.conflictingLoads      1912214                       # Number of conflicting loads. (Count)
system.cpu.MemDepUnit__0.conflictingStores      1173761                       # Number of conflicting stores. (Count)
system.cpu.MemDepUnit__1.insertedLoads              0                       # Number of loads inserted to the mem dependence unit. (Count)
system.cpu.MemDepUnit__1.insertedStores             0                       # Number of stores inserted to the mem dependence unit. (Count)
system.cpu.MemDepUnit__1.conflictingLoads            0                       # Number of conflicting loads. (Count)
system.cpu.MemDepUnit__1.conflictingStores            0                       # Number of conflicting stores. (Count)
system.cpu.MemDepUnit__2.insertedLoads              0                       # Number of loads inserted to the mem dependence unit. (Count)
system.cpu.MemDepUnit__2.insertedStores             0                       # Number of stores inserted to the mem dependence unit. (Count)
system.cpu.MemDepUnit__2.conflictingLoads            0                       # Number of conflicting loads. (Count)
system.cpu.MemDepUnit__2.conflictingStores            0                       # Number of conflicting stores. (Count)
system.cpu.MemDepUnit__3.insertedLoads              0                       # Number of loads inserted to the mem dependence unit. (Count)
system.cpu.MemDepUnit__3.insertedStores             0                       # Number of stores inserted to the mem dependence unit. (Count)
system.cpu.MemDepUnit__3.conflictingLoads            0                       # Number of conflicting loads. (Count)
system.cpu.MemDepUnit__3.conflictingStores            0                       # Number of conflicting stores. (Count)
system.cpu.branchPred.lookups_0::NoBranch        38311      0.09%      0.09% # Number of BP lookups (Count)
system.cpu.branchPred.lookups_0::Return       2097582      4.77%      4.86% # Number of BP lookups (Count)
system.cpu.branchPred.lookups_0::CallDirect      2335003      5.31%     10.17% # Number of BP lookups (Count)
system.cpu.branchPred.lookups_0::CallIndirect         1343      0.00%     10.17% # Number of BP lookups (Count)
system.cpu.branchPred.lookups_0::DirectCond     36183085     82.28%     92.45% # Number of BP lookups (Count)
system.cpu.branchPred.lookups_0::DirectUncond      1561701      3.55%     96.01% # Number of BP lookups (Count)
system.cpu.branchPred.lookups_0::IndirectCond            0      0.00%     96.01% # Number of BP lookups (Count)
system.cpu.branchPred.lookups_0::IndirectUncond      1756497      3.99%    100.00% # Number of BP lookups (Count)
system.cpu.branchPred.lookups_0::total       43973522                       # Number of BP lookups (Count)
system.cpu.branchPred.squashes_0::NoBranch        34742      0.21%      0.21% # Number of branches that got squashed (completely removed) as an earlier branch was mispredicted. (Count)
system.cpu.branchPred.squashes_0::Return       646409      3.94%      4.15% # Number of branches that got squashed (completely removed) as an earlier branch was mispredicted. (Count)
system.cpu.branchPred.squashes_0::CallDirect       884428      5.39%      9.54% # Number of branches that got squashed (completely removed) as an earlier branch was mispredicted. (Count)
system.cpu.branchPred.squashes_0::CallIndirect          740      0.00%      9.54% # Number of branches that got squashed (completely removed) as an earlier branch was mispredicted. (Count)
system.cpu.branchPred.squashes_0::DirectCond     13475633     82.08%     91.62% # Number of branches that got squashed (completely removed) as an earlier branch was mispredicted. (Count)
system.cpu.branchPred.squashes_0::DirectUncond       651765      3.97%     95.59% # Number of branches that got squashed (completely removed) as an earlier branch was mispredicted. (Count)
system.cpu.branchPred.squashes_0::IndirectCond            0      0.00%     95.59% # Number of branches that got squashed (completely removed) as an earlier branch was mispredicted. (Count)
system.cpu.branchPred.squashes_0::IndirectUncond       724420      4.41%    100.00% # Number of branches that got squashed (completely removed) as an earlier branch was mispredicted. (Count)
system.cpu.branchPred.squashes_0::total      16418137                       # Number of branches that got squashed (completely removed) as an earlier branch was mispredicted. (Count)
system.cpu.branchPred.corrected_0::NoBranch         7891      0.57%      0.57% # Number of branches that got corrected but not yet commited. Branches get corrected by decode or after execute. Also a branch misprediction can be detected out-of-order. Therefore, a corrected branch might not end up beeing committed in case an even earlier branch was mispredicted (Count)
system.cpu.branchPred.corrected_0::Return           14      0.00%      0.57% # Number of branches that got corrected but not yet commited. Branches get corrected by decode or after execute. Also a branch misprediction can be detected out-of-order. Therefore, a corrected branch might not end up beeing committed in case an even earlier branch was mispredicted (Count)
system.cpu.branchPred.corrected_0::CallDirect        31678      2.30%      2.88% # Number of branches that got corrected but not yet commited. Branches get corrected by decode or after execute. Also a branch misprediction can be detected out-of-order. Therefore, a corrected branch might not end up beeing committed in case an even earlier branch was mispredicted (Count)
system.cpu.branchPred.corrected_0::CallIndirect          232      0.02%      2.89% # Number of branches that got corrected but not yet commited. Branches get corrected by decode or after execute. Also a branch misprediction can be detected out-of-order. Therefore, a corrected branch might not end up beeing committed in case an even earlier branch was mispredicted (Count)
system.cpu.branchPred.corrected_0::DirectCond      1198828     87.10%     90.00% # Number of branches that got corrected but not yet commited. Branches get corrected by decode or after execute. Also a branch misprediction can be detected out-of-order. Therefore, a corrected branch might not end up beeing committed in case an even earlier branch was mispredicted (Count)
system.cpu.branchPred.corrected_0::DirectUncond       110427      8.02%     98.02% # Number of branches that got corrected but not yet commited. Branches get corrected by decode or after execute. Also a branch misprediction can be detected out-of-order. Therefore, a corrected branch might not end up beeing committed in case an even earlier branch was mispredicted (Count)
system.cpu.branchPred.corrected_0::IndirectCond            0      0.00%     98.02% # Number of branches that got corrected but not yet commited. Branches get corrected by decode or after execute. Also a branch misprediction can be detected out-of-order. Therefore, a corrected branch might not end up beeing committed in case an even earlier branch was mispredicted (Count)
system.cpu.branchPred.corrected_0::IndirectUncond        27269      1.98%    100.00% # Number of branches that got corrected but not yet commited. Branches get corrected by decode or after execute. Also a branch misprediction can be detected out-of-order. Therefore, a corrected branch might not end up beeing committed in case an even earlier branch was mispredicted (Count)
system.cpu.branchPred.corrected_0::total      1376339                       # Number of branches that got corrected but not yet commited. Branches get corrected by decode or after execute. Also a branch misprediction can be detected out-of-order. Therefore, a corrected branch might not end up beeing committed in case an even earlier branch was mispredicted (Count)
system.cpu.branchPred.earlyResteers_0::NoBranch            0                       # Number of branches that got redirected after decode. (Count)
system.cpu.branchPred.earlyResteers_0::Return            0                       # Number of branches that got redirected after decode. (Count)
system.cpu.branchPred.earlyResteers_0::CallDirect            0                       # Number of branches that got redirected after decode. (Count)
system.cpu.branchPred.earlyResteers_0::CallIndirect            0                       # Number of branches that got redirected after decode. (Count)
system.cpu.branchPred.earlyResteers_0::DirectCond            0                       # Number of branches that got redirected after decode. (Count)
system.cpu.branchPred.earlyResteers_0::DirectUncond            0                       # Number of branches that got redirected after decode. (Count)
system.cpu.branchPred.earlyResteers_0::IndirectCond            0                       # Number of branches that got redirected after decode. (Count)
system.cpu.branchPred.earlyResteers_0::IndirectUncond            0                       # Number of branches that got redirected after decode. (Count)
system.cpu.branchPred.earlyResteers_0::total            0                       # Number of branches that got redirected after decode. (Count)
system.cpu.branchPred.committed_0::NoBranch         3569      0.01%      0.01% # Number of branches finally committed  (Count)
system.cpu.branchPred.committed_0::Return      1451172      5.27%      5.28% # Number of branches finally committed  (Count)
system.cpu.branchPred.committed_0::CallDirect      1450574      5.26%     10.54% # Number of branches finally committed  (Count)
system.cpu.branchPred.committed_0::CallIndirect          603      0.00%     10.55% # Number of branches finally committed  (Count)
system.cpu.branchPred.committed_0::DirectCond     22707452     82.41%     92.95% # Number of branches finally committed  (Count)
system.cpu.branchPred.committed_0::DirectUncond       909936      3.30%     96.25% # Number of branches finally committed  (Count)
system.cpu.branchPred.committed_0::IndirectCond            0      0.00%     96.25% # Number of branches finally committed  (Count)
system.cpu.branchPred.committed_0::IndirectUncond      1032077      3.75%    100.00% # Number of branches finally committed  (Count)
system.cpu.branchPred.committed_0::total     27555383                       # Number of branches finally committed  (Count)
system.cpu.branchPred.mispredicted_0::NoBranch         3569      0.29%      0.29% # Number of committed branches that were mispredicted. (Count)
system.cpu.branchPred.mispredicted_0::Return            0      0.00%      0.29% # Number of committed branches that were mispredicted. (Count)
system.cpu.branchPred.mispredicted_0::CallDirect        25535      2.07%      2.36% # Number of committed branches that were mispredicted. (Count)
system.cpu.branchPred.mispredicted_0::CallIndirect          207      0.02%      2.38% # Number of committed branches that were mispredicted. (Count)
system.cpu.branchPred.mispredicted_0::DirectCond      1154097     93.59%     95.97% # Number of committed branches that were mispredicted. (Count)
system.cpu.branchPred.mispredicted_0::DirectUncond        26977      2.19%     98.16% # Number of committed branches that were mispredicted. (Count)
system.cpu.branchPred.mispredicted_0::IndirectCond            0      0.00%     98.16% # Number of committed branches that were mispredicted. (Count)
system.cpu.branchPred.mispredicted_0::IndirectUncond        22705      1.84%    100.00% # Number of committed branches that were mispredicted. (Count)
system.cpu.branchPred.mispredicted_0::total      1233090                       # Number of committed branches that were mispredicted. (Count)
system.cpu.branchPred.targetProvider_0::NoTarget     14454461     32.87%     32.87% # The component providing the target for taken branches (Count)
system.cpu.branchPred.targetProvider_0::BTB     25818530     58.71%     91.58% # The component providing the target for taken branches (Count)
system.cpu.branchPred.targetProvider_0::RAS      2097581      4.77%     96.35% # The component providing the target for taken branches (Count)
system.cpu.branchPred.targetProvider_0::Indirect      1602950      3.65%    100.00% # The component providing the target for taken branches (Count)
system.cpu.branchPred.targetProvider_0::total     43973522                       # The component providing the target for taken branches (Count)
system.cpu.branchPred.targetWrong_0::NoBranch       459442     48.16%     48.16% # Number of branches where the target was incorrect or not available at prediction time. (Count)
system.cpu.branchPred.targetWrong_0::Return       484298     50.77%     98.93% # Number of branches where the target was incorrect or not available at prediction time. (Count)
system.cpu.branchPred.targetWrong_0::CallDirect           14      0.00%     98.93% # Number of branches where the target was incorrect or not available at prediction time. (Count)
system.cpu.branchPred.targetWrong_0::CallIndirect        10205      1.07%    100.00% # Number of branches where the target was incorrect or not available at prediction time. (Count)
system.cpu.branchPred.targetWrong_0::DirectCond            0      0.00%    100.00% # Number of branches where the target was incorrect or not available at prediction time. (Count)
system.cpu.branchPred.targetWrong_0::DirectUncond            0      0.00%    100.00% # Number of branches where the target was incorrect or not available at prediction time. (Count)
system.cpu.branchPred.targetWrong_0::IndirectCond            0      0.00%    100.00% # Number of branches where the target was incorrect or not available at prediction time. (Count)
system.cpu.branchPred.targetWrong_0::IndirectUncond            0      0.00%    100.00% # Number of branches where the target was incorrect or not available at prediction time. (Count)
system.cpu.branchPred.targetWrong_0::total       953959                       # Number of branches where the target was incorrect or not available at prediction time. (Count)
system.cpu.branchPred.condPredicted          36221396                       # Number of conditional branches predicted (Count)
system.cpu.branchPred.condPredictedTaken     22624075                       # Number of conditional branches predicted as taken (Count)
system.cpu.branchPred.condIncorrect           1376339                       # Number of conditional branches incorrect (Count)
system.cpu.branchPred.predTakenBTBMiss         178912                       # Number of branches predicted taken but missed in BTB (Count)
system.cpu.branchPred.NotTakenMispredicted       750267                       # Number branches predicted 'not taken' but turned out to be taken (Count)
system.cpu.branchPred.TakenMispredicted        626072                       # Number branches predicted taken but are actually not taken (Count)
system.cpu.branchPred.BTBLookups             43973522                       # Number of BTB lookups (Count)
system.cpu.branchPred.BTBUpdates               714861                       # Number of BTB updates (Count)
system.cpu.branchPred.BTBHits                33418336                       # Number of BTB hits (Count)
system.cpu.branchPred.BTBHitRatio            0.759965                       # BTB Hit Ratio (Ratio)
system.cpu.branchPred.BTBMispredicted          196046                       # Number BTB mispredictions. No target found or target wrong (Count)
system.cpu.branchPred.indirectLookups         1757840                       # Number of indirect predictor lookups. (Count)
system.cpu.branchPred.indirectHits            1602950                       # Number of indirect target hits. (Count)
system.cpu.branchPred.indirectMisses           154890                       # Number of indirect misses. (Count)
system.cpu.branchPred.indirectMispredicted            0                       # Number of mispredicted indirect branches. (Count)
system.cpu.branchPred.btb.lookups::NoBranch        38311      0.09%      0.09% # Number of BTB lookups (Count)
system.cpu.branchPred.btb.lookups::Return      2097582      4.77%      4.86% # Number of BTB lookups (Count)
system.cpu.branchPred.btb.lookups::CallDirect      2335003      5.31%     10.17% # Number of BTB lookups (Count)
system.cpu.branchPred.btb.lookups::CallIndirect         1343      0.00%     10.17% # Number of BTB lookups (Count)
system.cpu.branchPred.btb.lookups::DirectCond     36183085     82.28%     92.45% # Number of BTB lookups (Count)
system.cpu.branchPred.btb.lookups::DirectUncond      1561701      3.55%     96.01% # Number of BTB lookups (Count)
system.cpu.branchPred.btb.lookups::IndirectCond            0      0.00%     96.01% # Number of BTB lookups (Count)
system.cpu.branchPred.btb.lookups::IndirectUncond      1756497      3.99%    100.00% # Number of BTB lookups (Count)
system.cpu.branchPred.btb.lookups::total     43973522                       # Number of BTB lookups (Count)
system.cpu.branchPred.btb.misses::NoBranch         4381      0.04%      0.04% # Number of BTB misses (Count)
system.cpu.branchPred.btb.misses::Return      1940769     18.39%     18.43% # Number of BTB misses (Count)
system.cpu.branchPred.btb.misses::CallDirect        33104      0.31%     18.74% # Number of BTB misses (Count)
system.cpu.branchPred.btb.misses::CallIndirect         1343      0.01%     18.75% # Number of BTB misses (Count)
system.cpu.branchPred.btb.misses::DirectCond      6593837     62.47%     81.22% # Number of BTB misses (Count)
system.cpu.branchPred.btb.misses::DirectUncond       225255      2.13%     83.36% # Number of BTB misses (Count)
system.cpu.branchPred.btb.misses::IndirectCond            0      0.00%     83.36% # Number of BTB misses (Count)
system.cpu.branchPred.btb.misses::IndirectUncond      1756497     16.64%    100.00% # Number of BTB misses (Count)
system.cpu.branchPred.btb.misses::total      10555186                       # Number of BTB misses (Count)
system.cpu.branchPred.btb.updates::NoBranch            0      0.00%      0.00% # Number of BTB updates (Count)
system.cpu.branchPred.btb.updates::Return            0      0.00%      0.00% # Number of BTB updates (Count)
system.cpu.branchPred.btb.updates::CallDirect        31678      4.43%      4.43% # Number of BTB updates (Count)
system.cpu.branchPred.btb.updates::CallIndirect            0      0.00%      4.43% # Number of BTB updates (Count)
system.cpu.branchPred.btb.updates::DirectCond       572756     80.12%     84.55% # Number of BTB updates (Count)
system.cpu.branchPred.btb.updates::DirectUncond       110427     15.45%    100.00% # Number of BTB updates (Count)
system.cpu.branchPred.btb.updates::IndirectCond            0      0.00%    100.00% # Number of BTB updates (Count)
system.cpu.branchPred.btb.updates::IndirectUncond            0      0.00%    100.00% # Number of BTB updates (Count)
system.cpu.branchPred.btb.updates::total       714861                       # Number of BTB updates (Count)
system.cpu.branchPred.btb.mispredict::NoBranch            0      0.00%      0.00% # Number of BTB mispredictions. No target found or target wrong. (Count)
system.cpu.branchPred.btb.mispredict::Return            0      0.00%      0.00% # Number of BTB mispredictions. No target found or target wrong. (Count)
system.cpu.branchPred.btb.mispredict::CallDirect        31678      4.43%      4.43% # Number of BTB mispredictions. No target found or target wrong. (Count)
system.cpu.branchPred.btb.mispredict::CallIndirect            0      0.00%      4.43% # Number of BTB mispredictions. No target found or target wrong. (Count)
system.cpu.branchPred.btb.mispredict::DirectCond       572756     80.12%     84.55% # Number of BTB mispredictions. No target found or target wrong. (Count)
system.cpu.branchPred.btb.mispredict::DirectUncond       110427     15.45%    100.00% # Number of BTB mispredictions. No target found or target wrong. (Count)
system.cpu.branchPred.btb.mispredict::IndirectCond            0      0.00%    100.00% # Number of BTB mispredictions. No target found or target wrong. (Count)
system.cpu.branchPred.btb.mispredict::IndirectUncond            0      0.00%    100.00% # Number of BTB mispredictions. No target found or target wrong. (Count)
system.cpu.branchPred.btb.mispredict::total       714861                       # Number of BTB mispredictions. No target found or target wrong. (Count)
system.cpu.branchPred.btb.power_state.pwrStateResidencyTicks::UNDEFINED 1023476932437                       # Cumulative time (in ticks) in various power states (Tick)
system.cpu.branchPred.indirectBranchPred.lookups      1757840                       # Number of lookups (Count)
system.cpu.branchPred.indirectBranchPred.hits      1602950                       # Number of hits of a tag (Count)
system.cpu.branchPred.indirectBranchPred.misses       154890                       # Number of misses (Count)
system.cpu.branchPred.indirectBranchPred.targetRecords        27501                       # Number of targets that where recorded/installed in the cache (Count)
system.cpu.branchPred.indirectBranchPred.indirectRecords      1785341                       # Number of indirect branches/calls recorded in the indirect hist (Count)
system.cpu.branchPred.indirectBranchPred.speculativeOverflows            1                       # Number of times more than the allowed capacity for speculative branches/calls where in flight and destroy the path history (Count)
system.cpu.branchPred.ras.pushes              2982755                       # Number of times a PC was pushed onto the RAS (Count)
system.cpu.branchPred.ras.pops                2982750                       # Number of times a PC was poped from the RAS (Count)
system.cpu.branchPred.ras.squashes            1531577                       # Number of times the stack operation was squashed due to wrong speculation. (Count)
system.cpu.branchPred.ras.used                1451172                       # Number of times the RAS is the provider (Count)
system.cpu.branchPred.ras.correct             1451172                       # Number of times the RAS is the provider and the prediction is correct (Count)
system.cpu.branchPred.ras.incorrect                 0                       # Number of times the RAS is the provider and the prediction is wrong (Count)
system.cpu.commit.commitSquashedInsts        78410849                       # The number of squashed insts skipped by commit (Count)
system.cpu.commit.commitNonSpecStalls            6961                       # The number of times commit has been forced to stall to communicate backwards (Count)
system.cpu.commit.branchMispredicts           1148644                       # The number of times a branch was mispredicted (Count)
system.cpu.commit.numCommittedDist::samples     66135628                       # Number of insts commited each cycle (Count)
system.cpu.commit.numCommittedDist::mean     3.427345                       # Number of insts commited each cycle (Count)
system.cpu.commit.numCommittedDist::stdev     3.136971                       # Number of insts commited each cycle (Count)
system.cpu.commit.numCommittedDist::underflows            0      0.00%      0.00% # Number of insts commited each cycle (Count)
system.cpu.commit.numCommittedDist::0        17180291     25.98%     25.98% # Number of insts commited each cycle (Count)
system.cpu.commit.numCommittedDist::1         9284555     14.04%     40.02% # Number of insts commited each cycle (Count)
system.cpu.commit.numCommittedDist::2         4880751      7.38%     47.40% # Number of insts commited each cycle (Count)
system.cpu.commit.numCommittedDist::3         6379419      9.65%     57.04% # Number of insts commited each cycle (Count)
system.cpu.commit.numCommittedDist::4         7960610     12.04%     69.08% # Number of insts commited each cycle (Count)
system.cpu.commit.numCommittedDist::5         1399005      2.12%     71.19% # Number of insts commited each cycle (Count)
system.cpu.commit.numCommittedDist::6          629745      0.95%     72.15% # Number of insts commited each cycle (Count)
system.cpu.commit.numCommittedDist::7         1500680      2.27%     74.42% # Number of insts commited each cycle (Count)
system.cpu.commit.numCommittedDist::8        16920572     25.58%    100.00% # Number of insts commited each cycle (Count)
system.cpu.commit.numCommittedDist::overflows            0      0.00%    100.00% # Number of insts commited each cycle (Count)
system.cpu.commit.numCommittedDist::min_value            0                       # Number of insts commited each cycle (Count)
system.cpu.commit.numCommittedDist::max_value            8                       # Number of insts commited each cycle (Count)
system.cpu.commit.numCommittedDist::total     66135628                       # Number of insts commited each cycle (Count)
system.cpu.commit.amos                              0                       # Number of atomic instructions committed (Count)
system.cpu.commit.membars                        4174                       # Number of memory barriers committed (Count)
system.cpu.commit.functionCalls               1451177                       # Number of function calls committed. (Count)
system.cpu.commit.committedInstType_0::No_OpClass      3614170      1.59%      1.59% # Class of committed instruction (Count)
system.cpu.commit.committedInstType_0::IntAlu    167189329     73.76%     75.35% # Class of committed instruction (Count)
system.cpu.commit.committedInstType_0::IntMult          416      0.00%     75.35% # Class of committed instruction (Count)
system.cpu.commit.committedInstType_0::IntDiv      3771869      1.66%     77.02% # Class of committed instruction (Count)
system.cpu.commit.committedInstType_0::FloatAdd       356050      0.16%     77.17% # Class of committed instruction (Count)
system.cpu.commit.committedInstType_0::FloatCmp            0      0.00%     77.17% # Class of committed instruction (Count)
system.cpu.commit.committedInstType_0::FloatCvt         1232      0.00%     77.18% # Class of committed instruction (Count)
system.cpu.commit.committedInstType_0::FloatMult            0      0.00%     77.18% # Class of committed instruction (Count)
system.cpu.commit.committedInstType_0::FloatMultAcc            0      0.00%     77.18% # Class of committed instruction (Count)
system.cpu.commit.committedInstType_0::FloatDiv            0      0.00%     77.18% # Class of committed instruction (Count)
system.cpu.commit.committedInstType_0::FloatMisc            0      0.00%     77.18% # Class of committed instruction (Count)
system.cpu.commit.committedInstType_0::FloatSqrt            0      0.00%     77.18% # Class of committed instruction (Count)
system.cpu.commit.committedInstType_0::SimdAdd        92126      0.04%     77.22% # Class of committed instruction (Count)
system.cpu.commit.committedInstType_0::SimdAddAcc            0      0.00%     77.22% # Class of committed instruction (Count)
system.cpu.commit.committedInstType_0::SimdAlu      1367945      0.60%     77.82% # Class of committed instruction (Count)
system.cpu.commit.committedInstType_0::SimdCmp          966      0.00%     77.82% # Class of committed instruction (Count)
system.cpu.commit.committedInstType_0::SimdCvt       363956      0.16%     77.98% # Class of committed instruction (Count)
system.cpu.commit.committedInstType_0::SimdMisc       717061      0.32%     78.30% # Class of committed instruction (Count)
system.cpu.commit.committedInstType_0::SimdMult            0      0.00%     78.30% # Class of committed instruction (Count)
system.cpu.commit.committedInstType_0::SimdMultAcc            0      0.00%     78.30% # Class of committed instruction (Count)
system.cpu.commit.committedInstType_0::SimdMatMultAcc            0      0.00%     78.30% # Class of committed instruction (Count)
system.cpu.commit.committedInstType_0::SimdShift        36116      0.02%     78.31% # Class of committed instruction (Count)
system.cpu.commit.committedInstType_0::SimdShiftAcc            0      0.00%     78.31% # Class of committed instruction (Count)
system.cpu.commit.committedInstType_0::SimdDiv            0      0.00%     78.31% # Class of committed instruction (Count)
system.cpu.commit.committedInstType_0::SimdSqrt            0      0.00%     78.31% # Class of committed instruction (Count)
system.cpu.commit.committedInstType_0::SimdFloatAdd          321      0.00%     78.31% # Class of committed instruction (Count)
system.cpu.commit.committedInstType_0::SimdFloatAlu            0      0.00%     78.31% # Class of committed instruction (Count)
system.cpu.commit.committedInstType_0::SimdFloatCmp            0      0.00%     78.31% # Class of committed instruction (Count)
system.cpu.commit.committedInstType_0::SimdFloatCvt         1602      0.00%     78.31% # Class of committed instruction (Count)
system.cpu.commit.committedInstType_0::SimdFloatDiv          161      0.00%     78.31% # Class of committed instruction (Count)
system.cpu.commit.committedInstType_0::SimdFloatMisc            0      0.00%     78.31% # Class of committed instruction (Count)
system.cpu.commit.committedInstType_0::SimdFloatMult          160      0.00%     78.31% # Class of committed instruction (Count)
system.cpu.commit.committedInstType_0::SimdFloatMultAcc            0      0.00%     78.31% # Class of committed instruction (Count)
system.cpu.commit.committedInstType_0::SimdFloatMatMultAcc            0      0.00%     78.31% # Class of committed instruction (Count)
system.cpu.commit.committedInstType_0::SimdFloatSqrt            0      0.00%     78.31% # Class of committed instruction (Count)
system.cpu.commit.committedInstType_0::SimdReduceAdd            0      0.00%     78.31% # Class of committed instruction (Count)
system.cpu.commit.committedInstType_0::SimdReduceAlu            0      0.00%     78.31% # Class of committed instruction (Count)
system.cpu.commit.committedInstType_0::SimdReduceCmp            0      0.00%     78.31% # Class of committed instruction (Count)
system.cpu.commit.committedInstType_0::SimdFloatReduceAdd            0      0.00%     78.31% # Class of committed instruction (Count)
system.cpu.commit.committedInstType_0::SimdFloatReduceCmp            0      0.00%     78.31% # Class of committed instruction (Count)
system.cpu.commit.committedInstType_0::SimdAes            0      0.00%     78.31% # Class of committed instruction (Count)
system.cpu.commit.committedInstType_0::SimdAesMix            0      0.00%     78.31% # Class of committed instruction (Count)
system.cpu.commit.committedInstType_0::SimdSha1Hash            0      0.00%     78.31% # Class of committed instruction (Count)
system.cpu.commit.committedInstType_0::SimdSha1Hash2            0      0.00%     78.31% # Class of committed instruction (Count)
system.cpu.commit.committedInstType_0::SimdSha256Hash            0      0.00%     78.31% # Class of committed instruction (Count)
system.cpu.commit.committedInstType_0::SimdSha256Hash2            0      0.00%     78.31% # Class of committed instruction (Count)
system.cpu.commit.committedInstType_0::SimdShaSigma2            0      0.00%     78.31% # Class of committed instruction (Count)
system.cpu.commit.committedInstType_0::SimdShaSigma3            0      0.00%     78.31% # Class of committed instruction (Count)
system.cpu.commit.committedInstType_0::SimdPredAlu            0      0.00%     78.31% # Class of committed instruction (Count)
system.cpu.commit.committedInstType_0::Matrix            0      0.00%     78.31% # Class of committed instruction (Count)
system.cpu.commit.committedInstType_0::MatrixMov            0      0.00%     78.31% # Class of committed instruction (Count)
system.cpu.commit.committedInstType_0::MatrixOP            0      0.00%     78.31% # Class of committed instruction (Count)
system.cpu.commit.committedInstType_0::MemRead     24038284     10.60%     88.92% # Class of committed instruction (Count)
system.cpu.commit.committedInstType_0::MemWrite     21797067      9.62%     98.53% # Class of committed instruction (Count)
system.cpu.commit.committedInstType_0::FloatMemRead      1125213      0.50%     99.03% # Class of committed instruction (Count)
system.cpu.commit.committedInstType_0::FloatMemWrite      2195541      0.97%    100.00% # Class of committed instruction (Count)
system.cpu.commit.committedInstType_0::IprAccess            0      0.00%    100.00% # Class of committed instruction (Count)
system.cpu.commit.committedInstType_0::InstPrefetch            0      0.00%    100.00% # Class of committed instruction (Count)
system.cpu.commit.committedInstType_0::SimdUnitStrideLoad            0      0.00%    100.00% # Class of committed instruction (Count)
system.cpu.commit.committedInstType_0::SimdUnitStrideStore            0      0.00%    100.00% # Class of committed instruction (Count)
system.cpu.commit.committedInstType_0::SimdUnitStrideMaskLoad            0      0.00%    100.00% # Class of committed instruction (Count)
system.cpu.commit.committedInstType_0::SimdUnitStrideMaskStore            0      0.00%    100.00% # Class of committed instruction (Count)
system.cpu.commit.committedInstType_0::SimdStridedLoad            0      0.00%    100.00% # Class of committed instruction (Count)
system.cpu.commit.committedInstType_0::SimdStridedStore            0      0.00%    100.00% # Class of committed instruction (Count)
system.cpu.commit.committedInstType_0::SimdIndexedLoad            0      0.00%    100.00% # Class of committed instruction (Count)
system.cpu.commit.committedInstType_0::SimdIndexedStore            0      0.00%    100.00% # Class of committed instruction (Count)
system.cpu.commit.committedInstType_0::SimdWholeRegisterLoad            0      0.00%    100.00% # Class of committed instruction (Count)
system.cpu.commit.committedInstType_0::SimdWholeRegisterStore            0      0.00%    100.00% # Class of committed instruction (Count)
system.cpu.commit.committedInstType_0::SimdUnitStrideFaultOnlyFirstLoad            0      0.00%    100.00% # Class of committed instruction (Count)
system.cpu.commit.committedInstType_0::SimdUnitStrideSegmentedLoad            0      0.00%    100.00% # Class of committed instruction (Count)
system.cpu.commit.committedInstType_0::SimdUnitStrideSegmentedStore            0      0.00%    100.00% # Class of committed instruction (Count)
system.cpu.commit.committedInstType_0::SimdExt            0      0.00%    100.00% # Class of committed instruction (Count)
system.cpu.commit.committedInstType_0::SimdFloatExt            0      0.00%    100.00% # Class of committed instruction (Count)
system.cpu.commit.committedInstType_0::SimdConfig            0      0.00%    100.00% # Class of committed instruction (Count)
system.cpu.commit.committedInstType_0::total    226669585                       # Class of committed instruction (Count)
system.cpu.commit.commitEligibleSamples      16920572                       # number cycles where commit BW limit reached (Cycle)
system.cpu.commitStats0.numInsts            103509766                       # Number of instructions committed (thread level) (Count)
system.cpu.commitStats0.numOps              226669585                       # Number of ops (including micro ops) committed (thread level) (Count)
system.cpu.commitStats0.numInstsNotNOP      103509766                       # Number of instructions committed excluding NOPs or prefetches (Count)
system.cpu.commitStats0.numOpsNotNOP        226669585                       # Number of Ops (including micro ops) Simulated (Count)
system.cpu.commitStats0.cpi                  0.741599                       # CPI: cycles per instruction (thread level) ((Cycle/Count))
system.cpu.commitStats0.ipc                  1.348438                       # IPC: instructions per cycle (thread level) ((Count/Cycle))
system.cpu.commitStats0.numMemRefs           49156105                       # Number of memory references committed (Count)
system.cpu.commitStats0.numFpInsts            6778313                       # Number of float instructions (Count)
system.cpu.commitStats0.numIntInsts         211237885                       # Number of integer instructions (Count)
system.cpu.commitStats0.numLoadInsts         25163497                       # Number of load instructions (Count)
system.cpu.commitStats0.numStoreInsts        23992608                       # Number of store instructions (Count)
system.cpu.commitStats0.numVecInsts                 0                       # Number of vector instructions (Count)
system.cpu.commitStats0.committedInstType::No_OpClass      3614170      1.59%      1.59% # Class of committed instruction. (Count)
system.cpu.commitStats0.committedInstType::IntAlu    167189329     73.76%     75.35% # Class of committed instruction. (Count)
system.cpu.commitStats0.committedInstType::IntMult          416      0.00%     75.35% # Class of committed instruction. (Count)
system.cpu.commitStats0.committedInstType::IntDiv      3771869      1.66%     77.02% # Class of committed instruction. (Count)
system.cpu.commitStats0.committedInstType::FloatAdd       356050      0.16%     77.17% # Class of committed instruction. (Count)
system.cpu.commitStats0.committedInstType::FloatCmp            0      0.00%     77.17% # Class of committed instruction. (Count)
system.cpu.commitStats0.committedInstType::FloatCvt         1232      0.00%     77.18% # Class of committed instruction. (Count)
system.cpu.commitStats0.committedInstType::FloatMult            0      0.00%     77.18% # Class of committed instruction. (Count)
system.cpu.commitStats0.committedInstType::FloatMultAcc            0      0.00%     77.18% # Class of committed instruction. (Count)
system.cpu.commitStats0.committedInstType::FloatDiv            0      0.00%     77.18% # Class of committed instruction. (Count)
system.cpu.commitStats0.committedInstType::FloatMisc            0      0.00%     77.18% # Class of committed instruction. (Count)
system.cpu.commitStats0.committedInstType::FloatSqrt            0      0.00%     77.18% # Class of committed instruction. (Count)
system.cpu.commitStats0.committedInstType::SimdAdd        92126      0.04%     77.22% # Class of committed instruction. (Count)
system.cpu.commitStats0.committedInstType::SimdAddAcc            0      0.00%     77.22% # Class of committed instruction. (Count)
system.cpu.commitStats0.committedInstType::SimdAlu      1367945      0.60%     77.82% # Class of committed instruction. (Count)
system.cpu.commitStats0.committedInstType::SimdCmp          966      0.00%     77.82% # Class of committed instruction. (Count)
system.cpu.commitStats0.committedInstType::SimdCvt       363956      0.16%     77.98% # Class of committed instruction. (Count)
system.cpu.commitStats0.committedInstType::SimdMisc       717061      0.32%     78.30% # Class of committed instruction. (Count)
system.cpu.commitStats0.committedInstType::SimdMult            0      0.00%     78.30% # Class of committed instruction. (Count)
system.cpu.commitStats0.committedInstType::SimdMultAcc            0      0.00%     78.30% # Class of committed instruction. (Count)
system.cpu.commitStats0.committedInstType::SimdMatMultAcc            0      0.00%     78.30% # Class of committed instruction. (Count)
system.cpu.commitStats0.committedInstType::SimdShift        36116      0.02%     78.31% # Class of committed instruction. (Count)
system.cpu.commitStats0.committedInstType::SimdShiftAcc            0      0.00%     78.31% # Class of committed instruction. (Count)
system.cpu.commitStats0.committedInstType::SimdDiv            0      0.00%     78.31% # Class of committed instruction. (Count)
system.cpu.commitStats0.committedInstType::SimdSqrt            0      0.00%     78.31% # Class of committed instruction. (Count)
system.cpu.commitStats0.committedInstType::SimdFloatAdd          321      0.00%     78.31% # Class of committed instruction. (Count)
system.cpu.commitStats0.committedInstType::SimdFloatAlu            0      0.00%     78.31% # Class of committed instruction. (Count)
system.cpu.commitStats0.committedInstType::SimdFloatCmp            0      0.00%     78.31% # Class of committed instruction. (Count)
system.cpu.commitStats0.committedInstType::SimdFloatCvt         1602      0.00%     78.31% # Class of committed instruction. (Count)
system.cpu.commitStats0.committedInstType::SimdFloatDiv          161      0.00%     78.31% # Class of committed instruction. (Count)
system.cpu.commitStats0.committedInstType::SimdFloatMisc            0      0.00%     78.31% # Class of committed instruction. (Count)
system.cpu.commitStats0.committedInstType::SimdFloatMult          160      0.00%     78.31% # Class of committed instruction. (Count)
system.cpu.commitStats0.committedInstType::SimdFloatMultAcc            0      0.00%     78.31% # Class of committed instruction. (Count)
system.cpu.commitStats0.committedInstType::SimdFloatMatMultAcc            0      0.00%     78.31% # Class of committed instruction. (Count)
system.cpu.commitStats0.committedInstType::SimdFloatSqrt            0      0.00%     78.31% # Class of committed instruction. (Count)
system.cpu.commitStats0.committedInstType::SimdReduceAdd            0      0.00%     78.31% # Class of committed instruction. (Count)
system.cpu.commitStats0.committedInstType::SimdReduceAlu            0      0.00%     78.31% # Class of committed instruction. (Count)
system.cpu.commitStats0.committedInstType::SimdReduceCmp            0      0.00%     78.31% # Class of committed instruction. (Count)
system.cpu.commitStats0.committedInstType::SimdFloatReduceAdd            0      0.00%     78.31% # Class of committed instruction. (Count)
system.cpu.commitStats0.committedInstType::SimdFloatReduceCmp            0      0.00%     78.31% # Class of committed instruction. (Count)
system.cpu.commitStats0.committedInstType::SimdAes            0      0.00%     78.31% # Class of committed instruction. (Count)
system.cpu.commitStats0.committedInstType::SimdAesMix            0      0.00%     78.31% # Class of committed instruction. (Count)
system.cpu.commitStats0.committedInstType::SimdSha1Hash            0      0.00%     78.31% # Class of committed instruction. (Count)
system.cpu.commitStats0.committedInstType::SimdSha1Hash2            0      0.00%     78.31% # Class of committed instruction. (Count)
system.cpu.commitStats0.committedInstType::SimdSha256Hash            0      0.00%     78.31% # Class of committed instruction. (Count)
system.cpu.commitStats0.committedInstType::SimdSha256Hash2            0      0.00%     78.31% # Class of committed instruction. (Count)
system.cpu.commitStats0.committedInstType::SimdShaSigma2            0      0.00%     78.31% # Class of committed instruction. (Count)
system.cpu.commitStats0.committedInstType::SimdShaSigma3            0      0.00%     78.31% # Class of committed instruction. (Count)
system.cpu.commitStats0.committedInstType::SimdPredAlu            0      0.00%     78.31% # Class of committed instruction. (Count)
system.cpu.commitStats0.committedInstType::Matrix            0      0.00%     78.31% # Class of committed instruction. (Count)
system.cpu.commitStats0.committedInstType::MatrixMov            0      0.00%     78.31% # Class of committed instruction. (Count)
system.cpu.commitStats0.committedInstType::MatrixOP            0      0.00%     78.31% # Class of committed instruction. (Count)
system.cpu.commitStats0.committedInstType::MemRead     24038284     10.60%     88.92% # Class of committed instruction. (Count)
system.cpu.commitStats0.committedInstType::MemWrite     21797067      9.62%     98.53% # Class of committed instruction. (Count)
system.cpu.commitStats0.committedInstType::FloatMemRead      1125213      0.50%     99.03% # Class of committed instruction. (Count)
system.cpu.commitStats0.committedInstType::FloatMemWrite      2195541      0.97%    100.00% # Class of committed instruction. (Count)
system.cpu.commitStats0.committedInstType::IprAccess            0      0.00%    100.00% # Class of committed instruction. (Count)
system.cpu.commitStats0.committedInstType::InstPrefetch            0      0.00%    100.00% # Class of committed instruction. (Count)
system.cpu.commitStats0.committedInstType::SimdUnitStrideLoad            0      0.00%    100.00% # Class of committed instruction. (Count)
system.cpu.commitStats0.committedInstType::SimdUnitStrideStore            0      0.00%    100.00% # Class of committed instruction. (Count)
system.cpu.commitStats0.committedInstType::SimdUnitStrideMaskLoad            0      0.00%    100.00% # Class of committed instruction. (Count)
system.cpu.commitStats0.committedInstType::SimdUnitStrideMaskStore            0      0.00%    100.00% # Class of committed instruction. (Count)
system.cpu.commitStats0.committedInstType::SimdStridedLoad            0      0.00%    100.00% # Class of committed instruction. (Count)
system.cpu.commitStats0.committedInstType::SimdStridedStore            0      0.00%    100.00% # Class of committed instruction. (Count)
system.cpu.commitStats0.committedInstType::SimdIndexedLoad            0      0.00%    100.00% # Class of committed instruction. (Count)
system.cpu.commitStats0.committedInstType::SimdIndexedStore            0      0.00%    100.00% # Class of committed instruction. (Count)
system.cpu.commitStats0.committedInstType::SimdWholeRegisterLoad            0      0.00%    100.00% # Class of committed instruction. (Count)
system.cpu.commitStats0.committedInstType::SimdWholeRegisterStore            0      0.00%    100.00% # Class of committed instruction. (Count)
system.cpu.commitStats0.committedInstType::SimdUnitStrideFaultOnlyFirstLoad            0      0.00%    100.00% # Class of committed instruction. (Count)
system.cpu.commitStats0.committedInstType::SimdUnitStrideSegmentedLoad            0      0.00%    100.00% # Class of committed instruction. (Count)
system.cpu.commitStats0.committedInstType::SimdUnitStrideSegmentedStore            0      0.00%    100.00% # Class of committed instruction. (Count)
system.cpu.commitStats0.committedInstType::SimdExt            0      0.00%    100.00% # Class of committed instruction. (Count)
system.cpu.commitStats0.committedInstType::SimdFloatExt            0      0.00%    100.00% # Class of committed instruction. (Count)
system.cpu.commitStats0.committedInstType::SimdConfig            0      0.00%    100.00% # Class of committed instruction. (Count)
system.cpu.commitStats0.committedInstType::total    226669585                       # Class of committed instruction. (Count)
system.cpu.commitStats0.committedControl::IsControl     27555383                       # Class of control type instructions committed (Count)
system.cpu.commitStats0.committedControl::IsDirectControl     25067962                       # Class of control type instructions committed (Count)
system.cpu.commitStats0.committedControl::IsIndirectControl      2483852                       # Class of control type instructions committed (Count)
system.cpu.commitStats0.committedControl::IsCondControl     22707452                       # Class of control type instructions committed (Count)
system.cpu.commitStats0.committedControl::IsUncondControl      4844362                       # Class of control type instructions committed (Count)
system.cpu.commitStats0.committedControl::IsCall      1451177                       # Class of control type instructions committed (Count)
system.cpu.commitStats0.committedControl::IsReturn      1451172                       # Class of control type instructions committed (Count)
system.cpu.decode.idleCycles                  8747377                       # Number of cycles decode is idle (Cycle)
system.cpu.decode.blockedCycles              22030612                       # Number of cycles decode is blocked (Cycle)
system.cpu.decode.runCycles                  36162261                       # Number of cycles decode is running (Cycle)
system.cpu.decode.unblockCycles               8456143                       # Number of cycles decode is unblocking (Cycle)
system.cpu.decode.squashCycles                1154433                       # Number of cycles decode is squashing (Cycle)
system.cpu.decode.branchResolved             22657677                       # Number of times decode resolved a branch (Count)
system.cpu.decode.branchMispred                230994                       # Number of times decode detected a branch misprediction (Count)
system.cpu.decode.decodedInsts              321909857                       # Number of instructions handled by decode (Count)
system.cpu.decode.squashedInsts               1425578                       # Number of squashed instructions handled by decode (Count)
system.cpu.executeStats0.numInsts           265815902                       # Number of executed instructions (Count)
system.cpu.executeStats0.numNop                     0                       # Number of nop insts executed (Count)
system.cpu.executeStats0.numBranches         30557985                       # Number of branches executed (Count)
system.cpu.executeStats0.numLoadInsts        29675915                       # Number of load instructions executed (Count)
system.cpu.executeStats0.numStoreInsts       26817948                       # Number of stores executed (Count)
system.cpu.executeStats0.instRate            3.462827                       # Inst execution rate ((Count/Cycle))
system.cpu.executeStats0.numCCRegReads      149403564                       # Number of times the CC registers were read (Count)
system.cpu.executeStats0.numCCRegWrites      84912545                       # Number of times the CC registers were written (Count)
system.cpu.executeStats0.numFpRegReads        9856944                       # Number of times the floating registers were read (Count)
system.cpu.executeStats0.numFpRegWrites       5254009                       # Number of times the floating registers were written (Count)
system.cpu.executeStats0.numIntRegReads     322480456                       # Number of times the integer registers were read (Count)
system.cpu.executeStats0.numIntRegWrites    190559033                       # Number of times the integer registers were written (Count)
system.cpu.executeStats0.numMemRefs          56493863                       # Number of memory refs (Count)
system.cpu.executeStats0.numMiscRegReads    102491201                       # Number of times the Misc registers were read (Count)
system.cpu.executeStats0.numMiscRegWrites          693                       # Number of times the Misc registers were written (Count)
system.cpu.executeStats0.numVecAluAccesses            0                       # Number of vector alu accesses (Count)
system.cpu.executeStats0.numDiscardedOps            0                       # Number of ops (including micro ops) which were discarded before commit (Count)
system.cpu.fetch.predictedBranches           29519061                       # Number of branches that fetch has predicted taken (Count)
system.cpu.fetch.cycles                      71540066                       # Number of cycles fetch has run and was not squashing or blocked (Cycle)
system.cpu.fetch.squashCycles                 2768634                       # Number of cycles fetch has spent squashing (Cycle)
system.cpu.fetch.miscStallCycles                 2022                       # Number of cycles fetch has spent waiting on interrupts, or bad addresses, or out of MSHRs (Cycle)
system.cpu.fetch.pendingTrapStallCycles         28421                       # Number of stall cycles due to pending traps (Cycle)
system.cpu.fetch.cacheLines                  19235883                       # Number of cache lines fetched (Count)
[...]
system.mem_ctrl.dram.bytesWritten::total        63360                       # Number of bytes written to this memory (Byte)
system.mem_ctrl.dram.numReads::cpu.inst          1220                       # Number of read requests responded to by this memory (Count)
system.mem_ctrl.dram.numReads::cpu.data          1660                       # Number of read requests responded to by this memory (Count)
system.mem_ctrl.dram.numReads::total             2880                       # Number of read requests responded to by this memory (Count)
system.mem_ctrl.dram.numWrites::writebacks          990                       # Number of write requests responded to by this memory (Count)
system.mem_ctrl.dram.numWrites::total             990                       # Number of write requests responded to by this memory (Count)
system.mem_ctrl.dram.bwRead::cpu.inst        61954724                       # Total read bandwidth from this memory ((Byte/Second))
system.mem_ctrl.dram.bwRead::cpu.data        84299051                       # Total read bandwidth from this memory ((Byte/Second))
system.mem_ctrl.dram.bwRead::total          146253775                       # Total read bandwidth from this memory ((Byte/Second))
system.mem_ctrl.dram.bwInstRead::cpu.inst     61954724                       # Instruction read bandwidth from this memory ((Byte/Second))
system.mem_ctrl.dram.bwInstRead::total       61954724                       # Instruction read bandwidth from this memory ((Byte/Second))
system.mem_ctrl.dram.bwWrite::writebacks     50274735                       # Write bandwidth from this memory ((Byte/Second))
system.mem_ctrl.dram.bwWrite::total          50274735                       # Write bandwidth from this memory ((Byte/Second))
system.mem_ctrl.dram.bwTotal::writebacks     50274735                       # Total bandwidth to/from this memory ((Byte/Second))
system.mem_ctrl.dram.bwTotal::cpu.inst       61954724                       # Total bandwidth to/from this memory ((Byte/Second))
system.mem_ctrl.dram.bwTotal::cpu.data       84299051                       # Total bandwidth to/from this memory ((Byte/Second))
system.mem_ctrl.dram.bwTotal::total         196528511                       # Total bandwidth to/from this memory ((Byte/Second))
system.mem_ctrl.dram.readBursts                  2838                       # Number of DRAM read bursts (Count)
system.mem_ctrl.dram.writeBursts                  994                       # Number of DRAM write bursts (Count)
system.mem_ctrl.dram.perBankRdBursts::0           108                       # Per bank write bursts (Count)
system.mem_ctrl.dram.perBankRdBursts::1           229                       # Per bank write bursts (Count)
system.mem_ctrl.dram.perBankRdBursts::2           169                       # Per bank write bursts (Count)
system.mem_ctrl.dram.perBankRdBursts::3            98                       # Per bank write bursts (Count)
system.mem_ctrl.dram.perBankRdBursts::4           131                       # Per bank write bursts (Count)
system.mem_ctrl.dram.perBankRdBursts::5           375                       # Per bank write bursts (Count)
system.mem_ctrl.dram.perBankRdBursts::6           279                       # Per bank write bursts (Count)
system.mem_ctrl.dram.perBankRdBursts::7           158                       # Per bank write bursts (Count)
system.mem_ctrl.dram.perBankRdBursts::8           115                       # Per bank write bursts (Count)
system.mem_ctrl.dram.perBankRdBursts::9           138                       # Per bank write bursts (Count)
system.mem_ctrl.dram.perBankRdBursts::10           78                       # Per bank write bursts (Count)
system.mem_ctrl.dram.perBankRdBursts::11          188                       # Per bank write bursts (Count)
system.mem_ctrl.dram.perBankRdBursts::12          226                       # Per bank write bursts (Count)
system.mem_ctrl.dram.perBankRdBursts::13          262                       # Per bank write bursts (Count)
system.mem_ctrl.dram.perBankRdBursts::14          160                       # Per bank write bursts (Count)
system.mem_ctrl.dram.perBankRdBursts::15          124                       # Per bank write bursts (Count)
system.mem_ctrl.dram.perBankWrBursts::0             0                       # Per bank write bursts (Count)
system.mem_ctrl.dram.perBankWrBursts::1            36                       # Per bank write bursts (Count)
system.mem_ctrl.dram.perBankWrBursts::2            33                       # Per bank write bursts (Count)
system.mem_ctrl.dram.perBankWrBursts::3             1                       # Per bank write bursts (Count)
system.mem_ctrl.dram.perBankWrBursts::4             0                       # Per bank write bursts (Count)
system.mem_ctrl.dram.perBankWrBursts::5           148                       # Per bank write bursts (Count)
system.mem_ctrl.dram.perBankWrBursts::6           126                       # Per bank write bursts (Count)
system.mem_ctrl.dram.perBankWrBursts::7            53                       # Per bank write bursts (Count)
system.mem_ctrl.dram.perBankWrBursts::8            44                       # Per bank write bursts (Count)
system.mem_ctrl.dram.perBankWrBursts::9             5                       # Per bank write bursts (Count)
system.mem_ctrl.dram.perBankWrBursts::10           66                       # Per bank write bursts (Count)
system.mem_ctrl.dram.perBankWrBursts::11          255                       # Per bank write bursts (Count)
system.mem_ctrl.dram.perBankWrBursts::12          149                       # Per bank write bursts (Count)
system.mem_ctrl.dram.perBankWrBursts::13           57                       # Per bank write bursts (Count)
system.mem_ctrl.dram.perBankWrBursts::14            9                       # Per bank write bursts (Count)
system.mem_ctrl.dram.perBankWrBursts::15           12                       # Per bank write bursts (Count)
system.mem_ctrl.dram.totQLat                 34818885                       # Total ticks spent queuing (Tick)
system.mem_ctrl.dram.totBusLat               14190000                       # Total ticks spent in databus transfers (Tick)
system.mem_ctrl.dram.totMemAccLat            88031385                       # Total ticks spent from burst creation until serviced by the DRAM (Tick)
system.mem_ctrl.dram.avgQLat                 12268.81                       # Average queueing delay per DRAM burst ((Tick/Count))
system.mem_ctrl.dram.avgBusLat                5000.00                       # Average bus latency per DRAM burst ((Tick/Count))
system.mem_ctrl.dram.avgMemAccLat            31018.81                       # Average memory access latency per DRAM burst ((Tick/Count))
system.mem_ctrl.dram.readRowHits                 1704                       # Number of row buffer hits during reads (Count)
system.mem_ctrl.dram.writeRowHits                 846                       # Number of row buffer hits during writes (Count)
system.mem_ctrl.dram.readRowHitRate             60.04                       # Row buffer hit rate for reads (Ratio)
system.mem_ctrl.dram.writeRowHitRate            85.11                       # Row buffer hit rate for writes (Ratio)
system.mem_ctrl.dram.bytesPerActivate::samples         1285                       # Bytes accessed per row activation (Byte)
system.mem_ctrl.dram.bytesPerActivate::mean   191.402335                       # Bytes accessed per row activation (Byte)
system.mem_ctrl.dram.bytesPerActivate::gmean   129.166410                       # Bytes accessed per row activation (Byte)
system.mem_ctrl.dram.bytesPerActivate::stdev   216.105758                       # Bytes accessed per row activation (Byte)
system.mem_ctrl.dram.bytesPerActivate::0-127          594     46.23%     46.23% # Bytes accessed per row activation (Byte)
system.mem_ctrl.dram.bytesPerActivate::128-255          385     29.96%     76.19% # Bytes accessed per row activation (Byte)
system.mem_ctrl.dram.bytesPerActivate::256-383          134     10.43%     86.61% # Bytes accessed per row activation (Byte)
system.mem_ctrl.dram.bytesPerActivate::384-511           58      4.51%     91.13% # Bytes accessed per row activation (Byte)
system.mem_ctrl.dram.bytesPerActivate::512-639           39      3.04%     94.16% # Bytes accessed per row activation (Byte)
system.mem_ctrl.dram.bytesPerActivate::640-767           11      0.86%     95.02% # Bytes accessed per row activation (Byte)
system.mem_ctrl.dram.bytesPerActivate::768-895           14      1.09%     96.11% # Bytes accessed per row activation (Byte)
system.mem_ctrl.dram.bytesPerActivate::896-1023           11      0.86%     96.96% # Bytes accessed per row activation (Byte)
system.mem_ctrl.dram.bytesPerActivate::1024-1151           39      3.04%    100.00% # Bytes accessed per row activation (Byte)
system.mem_ctrl.dram.bytesPerActivate::total         1285                       # Bytes accessed per row activation (Byte)
system.mem_ctrl.dram.dramBytesRead             181632                       # Total bytes read (Byte)
system.mem_ctrl.dram.dramBytesWritten           63616                       # Total bytes written (Byte)
system.mem_ctrl.dram.avgRdBW               144.120908                       # Average DRAM read bandwidth in MiBytes/s ((Byte/Second))
system.mem_ctrl.dram.avgWrBW                50.477866                       # Average DRAM write bandwidth in MiBytes/s ((Byte/Second))
system.mem_ctrl.dram.peakBW                  12800.00                       # Theoretical peak bandwidth in MiByte/s ((Byte/Second))
system.mem_ctrl.dram.busUtil                     1.52                       # Data bus utilization in percentage (Ratio)
system.mem_ctrl.dram.busUtilRead                 1.13                       # Data bus utilization in percentage for reads (Ratio)
system.mem_ctrl.dram.busUtilWrite                0.39                       # Data bus utilization in percentage for writes (Ratio)
system.mem_ctrl.dram.pageHitRate                66.54                       # Row buffer hit rate, read and write combined (Ratio)
system.mem_ctrl.dram.power_state.pwrStateResidencyTicks::UNDEFINED   1260275159                       # Cumulative time (in ticks) in various power states (Tick)
system.mem_ctrl.dram.rank0.actEnergy          4533900                       # Energy for activate commands per rank (pJ) (Joule)
system.mem_ctrl.dram.rank0.preEnergy          2417415                       # Energy for precharge commands per rank (pJ) (Joule)
system.mem_ctrl.dram.rank0.readEnergy        11045580                       # Energy for read commands per rank (pJ) (Joule)
system.mem_ctrl.dram.rank0.writeEnergy        2072340                       # Energy for write commands per rank (pJ) (Joule)
system.mem_ctrl.dram.rank0.refreshEnergy 99571680.000000                       # Energy for refresh commands per rank (pJ) (Joule)
system.mem_ctrl.dram.rank0.actBackEnergy    484058250                       # Energy for active background per rank (pJ) (Joule)
system.mem_ctrl.dram.rank0.preBackEnergy     76317600                       # Energy for precharge background per rank (pJ) (Joule)
system.mem_ctrl.dram.rank0.actPowerDownEnergy            0                       # Energy for active power-down per rank (pJ) (Joule)
system.mem_ctrl.dram.rank0.prePowerDownEnergy            0                       # Energy for precharge power-down per rank (pJ) (Joule)
system.mem_ctrl.dram.rank0.selfRefreshEnergy            0                       # Energy for self refresh per rank (pJ) (Joule)
system.mem_ctrl.dram.rank0.totalEnergy      680016765                       # Total energy per rank (pJ) (Joule)
system.mem_ctrl.dram.rank0.averagePower    539.578012                       # Core power per rank (mW) (Watt)
system.mem_ctrl.dram.rank0.totalIdleTime            0                       # Total Idle time Per DRAM Rank (Tick)
system.mem_ctrl.dram.rank0.pwrStateTime::IDLE    193896428                       # Time in different power states (Tick)
system.mem_ctrl.dram.rank0.pwrStateTime::REF     42120000                       # Time in different power states (Tick)
system.mem_ctrl.dram.rank0.pwrStateTime::SREF            0                       # Time in different power states (Tick)
system.mem_ctrl.dram.rank0.pwrStateTime::PRE_PDN            0                       # Time in different power states (Tick)
system.mem_ctrl.dram.rank0.pwrStateTime::ACT   1024258731                       # Time in different power states (Tick)
system.mem_ctrl.dram.rank0.pwrStateTime::ACT_PDN            0                       # Time in different power states (Tick)
system.mem_ctrl.dram.rank1.actEnergy          4619580                       # Energy for activate commands per rank (pJ) (Joule)
system.mem_ctrl.dram.rank1.preEnergy          2459160                       # Energy for precharge commands per rank (pJ) (Joule)
system.mem_ctrl.dram.rank1.readEnergy         9217740                       # Energy for read commands per rank (pJ) (Joule)
system.mem_ctrl.dram.rank1.writeEnergy        3116340                       # Energy for write commands per rank (pJ) (Joule)
system.mem_ctrl.dram.rank1.refreshEnergy 99571680.000000                       # Energy for refresh commands per rank (pJ) (Joule)
system.mem_ctrl.dram.rank1.actBackEnergy    449526510                       # Energy for active background per rank (pJ) (Joule)
system.mem_ctrl.dram.rank1.preBackEnergy    105396960                       # Energy for precharge background per rank (pJ) (Joule)
system.mem_ctrl.dram.rank1.actPowerDownEnergy            0                       # Energy for active power-down per rank (pJ) (Joule)
system.mem_ctrl.dram.rank1.prePowerDownEnergy            0                       # Energy for precharge power-down per rank (pJ) (Joule)
system.mem_ctrl.dram.rank1.selfRefreshEnergy            0                       # Energy for self refresh per rank (pJ) (Joule)
system.mem_ctrl.dram.rank1.totalEnergy      673907970                       # Total energy per rank (pJ) (Joule)
system.mem_ctrl.dram.rank1.averagePower    534.730821                       # Core power per rank (mW) (Watt)
system.mem_ctrl.dram.rank1.totalIdleTime            0                       # Total Idle time Per DRAM Rank (Tick)
system.mem_ctrl.dram.rank1.pwrStateTime::IDLE    269906185                       # Time in different power states (Tick)
system.mem_ctrl.dram.rank1.pwrStateTime::REF     42120000                       # Time in different power states (Tick)
system.mem_ctrl.dram.rank1.pwrStateTime::SREF            0                       # Time in different power states (Tick)
system.mem_ctrl.dram.rank1.pwrStateTime::PRE_PDN            0                       # Time in different power states (Tick)
system.mem_ctrl.dram.rank1.pwrStateTime::ACT    948248974                       # Time in different power states (Tick)
system.mem_ctrl.dram.rank1.pwrStateTime::ACT_PDN            0                       # Time in different power states (Tick)
system.mem_ctrl.power_state.pwrStateResidencyTicks::UNDEFINED   1260275159                       # Cumulative time (in ticks) in various power states (Tick)
system.membus.transDist::ReadResp                2807                       # Transaction distribution (Count)
system.membus.transDist::WritebackDirty           990                       # Transaction distribution (Count)
system.membus.transDist::CleanEvict              1922                       # Transaction distribution (Count)
system.membus.transDist::ReadExReq                 73                       # Transaction distribution (Count)
system.membus.transDist::ReadExResp                73                       # Transaction distribution (Count)
system.membus.transDist::ReadSharedReq           2807                       # Transaction distribution (Count)
system.membus.pktCount_system.l2_cache.mem_side_port::system.mem_ctrl.port         8672                       # Packet count per connected requestor and responder (Count)
system.membus.pktCount_system.l2_cache.mem_side_port::total         8672                       # Packet count per connected requestor and responder (Count)
system.membus.pktCount::total                    8672                       # Packet count per connected requestor and responder (Count)
system.membus.pktSize_system.l2_cache.mem_side_port::system.mem_ctrl.port       247680                       # Cumulative packet size per connected requestor and responder (Byte)
system.membus.pktSize_system.l2_cache.mem_side_port::total       247680                       # Cumulative packet size per connected requestor and responder (Byte)
system.membus.pktSize::total                   247680                       # Cumulative packet size per connected requestor and responder (Byte)
system.membus.snoops                                0                       # Total snoops (Count)
system.membus.snoopTraffic                          0                       # Total snoop traffic (Byte)
system.membus.snoopFanout::samples               2880                       # Request fanout histogram (Count)
system.membus.snoopFanout::mean                     0                       # Request fanout histogram (Count)
system.membus.snoopFanout::stdev                    0                       # Request fanout histogram (Count)
system.membus.snoopFanout::underflows               0      0.00%      0.00% # Request fanout histogram (Count)
system.membus.snoopFanout::0                     2880    100.00%    100.00% # Request fanout histogram (Count)
system.membus.snoopFanout::1                        0      0.00%    100.00% # Request fanout histogram (Count)
system.membus.snoopFanout::overflows                0      0.00%    100.00% # Request fanout histogram (Count)
system.membus.snoopFanout::min_value                0                       # Request fanout histogram (Count)
system.membus.snoopFanout::max_value                0                       # Request fanout histogram (Count)
system.membus.snoopFanout::total                 2880                       # Request fanout histogram (Count)
system.membus.power_state.pwrStateResidencyTicks::UNDEFINED   1260275159                       # Cumulative time (in ticks) in various power states (Tick)
system.membus.reqLayer2.occupancy           130023416                       # Layer occupancy (ticks) (Tick)
system.membus.reqLayer2.utilization               0.1                       # Layer utilization (Ratio)
system.membus.respLayer2.occupancy          194950029                       # Layer occupancy (ticks) (Tick)
system.membus.respLayer2.utilization              0.2                       # Layer utilization (Ratio)
system.membus.snoop_filter.totRequests           5792                       # Total number of requests made to the snoop filter. (Count)
system.membus.snoop_filter.hitSingleRequests         2912                       # Number of requests hitting in the snoop filter with a single holder of the requested data. (Count)
system.membus.snoop_filter.hitMultiRequests            0                       # Number of requests hitting in the snoop filter with multiple (>1) holders of the requested data. (Count)
system.membus.snoop_filter.totSnoops                0                       # Total number of snoops made to the snoop filter. (Count)
system.membus.snoop_filter.hitSingleSnoops            0                       # Number of snoops hitting in the snoop filter with a single holder of the requested data. (Count)
system.membus.snoop_filter.hitMultiSnoops            0                       # Number of snoops hitting in the snoop filter with multiple (>1) holders of the requested data. (Count)
system.workload.inst.arm                            0                       # number of arm instructions executed (Count)
system.workload.inst.quiesce                        0                       # number of quiesce instructions executed (Count)

---------- End Simulation Statistics   ----------
