
---------- Begin Simulation Statistics ----------
simSeconds                                  11.828575                       # Number of seconds simulated (Second)
simTicks                                 11828575224893                       # Number of ticks simulated (Tick)
finalTick                                11828575224893                       # Number of ticks from beginning of simulation (restored from checkpoints and never reset) (Tick)
simFreq                                  1000000000000                       # The number of ticks per simulated second ((Tick/Second))
hostSeconds                                   2038.77                       # Real time elapsed on the host (Second)
hostTickRate                               5801814111                       # The number of ticks simulated per host second (ticks/s) ((Tick/Second))
hostMemory                                    8697036                       # Number of bytes of host memory used (Byte)
simInsts                                    339320547                       # Number of instructions simulated (Count)
simOps                                      647914329                       # Number of ops (including micro ops) simulated (Count)
hostInstRate                                   166434                       # Simulator instruction rate (inst/s) ((Count/Second))
hostOpRate                                     317796                       # Simulator op (including micro ops) rate (op/s) ((Count/Second))
system.clk_domain.clock                         13333                       # Clock period in ticks (Tick)
system.clk_domain.voltage_domain.voltage            1                       # Voltage in Volts (Volt)
system.cpu.numCycles                        887165322                       # Number of cpu cycles simulated (Cycle)
system.cpu.cpi                               2.614535                       # CPI: cycles per instruction (core level) ((Cycle/Count))
system.cpu.ipc                               0.382477                       # IPC: instructions per cycle (core level) ((Count/Cycle))
system.cpu.numWorkItemsStarted                      0                       # Number of work items this cpu started (Count)
system.cpu.numWorkItemsCompleted                    0                       # Number of work items this cpu completed (Count)
system.cpu.instsAdded                       689962340                       # Number of instructions added to the IQ (excludes non-spec) (Count)
system.cpu.nonSpecInstsAdded                   220088                       # Number of non-speculative instructions added to the IQ (Count)
system.cpu.instsIssued                      731389683                       # Number of instructions issued (Count)
system.cpu.squashedInstsIssued                 401251                       # Number of squashed instructions issued (Count)
system.cpu.squashedInstsExamined             42268088                       # Number of squashed instructions iterated over during squash; mainly for profiling (Count)
system.cpu.squashedOperandsExamined          73720538                       # Number of squashed operands that are examined and possibly removed from graph (Count)
system.cpu.squashedNonSpecRemoved               13099                       # Number of squashed non-spec instructions that were removed (Count)
system.cpu.numIssuedDist::samples           880772592                       # Number of insts issued each cycle (Count)
system.cpu.numIssuedDist::mean               0.830396                       # Number of insts issued each cycle (Count)
system.cpu.numIssuedDist::stdev              1.532983                       # Number of insts issued each cycle (Count)
system.cpu.numIssuedDist::underflows                0      0.00%      0.00% # Number of insts issued each cycle (Count)
system.cpu.numIssuedDist::0                 587244707     66.67%     66.67% # Number of insts issued each cycle (Count)
system.cpu.numIssuedDist::1                 116160021     13.19%     79.86% # Number of insts issued each cycle (Count)
system.cpu.numIssuedDist::2                  66529483      7.55%     87.42% # Number of insts issued each cycle (Count)
system.cpu.numIssuedDist::3                  39757073      4.51%     91.93% # Number of insts issued each cycle (Count)
system.cpu.numIssuedDist::4                  25687602      2.92%     94.85% # Number of insts issued each cycle (Count)
system.cpu.numIssuedDist::5                  22536624      2.56%     97.40% # Number of insts issued each cycle (Count)
system.cpu.numIssuedDist::6                  15344778      1.74%     99.15% # Number of insts issued each cycle (Count)
system.cpu.numIssuedDist::7                   4701151      0.53%     99.68% # Number of insts issued each cycle (Count)
system.cpu.numIssuedDist::8                   2811153      0.32%    100.00% # Number of insts issued each cycle (Count)
system.cpu.numIssuedDist::overflows                 0      0.00%    100.00% # Number of insts issued each cycle (Count)
system.cpu.numIssuedDist::min_value                 0                       # Number of insts issued each cycle (Count)
system.cpu.numIssuedDist::max_value                 8                       # Number of insts issued each cycle (Count)
system.cpu.numIssuedDist::total             880772592                       # Number of insts issued each cycle (Count)
system.cpu.statFuBusy::No_OpClass                   0      0.00%      0.00% # attempts to use FU when none available (Count)
system.cpu.statFuBusy::IntAlu                 1368110     62.21%     62.21% # attempts to use FU when none available (Count)
system.cpu.statFuBusy::IntMult                      0      0.00%     62.21% # attempts to use FU when none available (Count)
system.cpu.statFuBusy::IntDiv                       0      0.00%     62.21% # attempts to use FU when none available (Count)
system.cpu.statFuBusy::FloatAdd                     0      0.00%     62.21% # attempts to use FU when none available (Count)
system.cpu.statFuBusy::FloatCmp                     0      0.00%     62.21% # attempts to use FU when none available (Count)
system.cpu.statFuBusy::FloatCvt                     0      0.00%     62.21% # attempts to use FU when none available (Count)
system.cpu.statFuBusy::FloatMult                    0      0.00%     62.21% # attempts to use FU when none available (Count)
system.cpu.statFuBusy::FloatMultAcc                 0      0.00%     62.21% # attempts to use FU when none available (Count)
system.cpu.statFuBusy::FloatDiv                     0      0.00%     62.21% # attempts to use FU when none available (Count)
system.cpu.statFuBusy::FloatMisc                    0      0.00%     62.21% # attempts to use FU when none available (Count)
system.cpu.statFuBusy::FloatSqrt                    0      0.00%     62.21% # attempts to use FU when none available (Count)
system.cpu.statFuBusy::SimdAdd                      0      0.00%     62.21% # attempts to use FU when none available (Count)
system.cpu.statFuBusy::SimdAddAcc                   0      0.00%     62.21% # attempts to use FU when none available (Count)
system.cpu.statFuBusy::SimdAlu                  56145      2.55%     64.76% # attempts to use FU when none available (Count)
system.cpu.statFuBusy::SimdCmp                      0      0.00%     64.76% # attempts to use FU when none available (Count)
system.cpu.statFuBusy::SimdCvt                      4      0.00%     64.76% # attempts to use FU when none available (Count)
system.cpu.statFuBusy::SimdMisc                     1      0.00%     64.76% # attempts to use FU when none available (Count)
system.cpu.statFuBusy::SimdMult                     0      0.00%     64.76% # attempts to use FU when none available (Count)
system.cpu.statFuBusy::SimdMultAcc                  0      0.00%     64.76% # attempts to use FU when none available (Count)
system.cpu.statFuBusy::SimdMatMultAcc               0      0.00%     64.76% # attempts to use FU when none available (Count)
system.cpu.statFuBusy::SimdShift                    0      0.00%     64.76% # attempts to use FU when none available (Count)
system.cpu.statFuBusy::SimdShiftAcc                 0      0.00%     64.76% # attempts to use FU when none available (Count)
system.cpu.statFuBusy::SimdDiv                      0      0.00%     64.76% # attempts to use FU when none available (Count)
system.cpu.statFuBusy::SimdSqrt                     0      0.00%     64.76% # attempts to use FU when none available (Count)
system.cpu.statFuBusy::SimdFloatAdd                90      0.00%     64.76% # attempts to use FU when none available (Count)
system.cpu.statFuBusy::SimdFloatAlu                 0      0.00%     64.76% # attempts to use FU when none available (Count)
system.cpu.statFuBusy::SimdFloatCmp                 0      0.00%     64.76% # attempts to use FU when none available (Count)
system.cpu.statFuBusy::SimdFloatCvt                 0      0.00%     64.76% # attempts to use FU when none available (Count)
system.cpu.statFuBusy::SimdFloatDiv                 0      0.00%     64.76% # attempts to use FU when none available (Count)
system.cpu.statFuBusy::SimdFloatMisc                0      0.00%     64.76% # attempts to use FU when none available (Count)
system.cpu.statFuBusy::SimdFloatMult                0      0.00%     64.76% # attempts to use FU when none available (Count)
system.cpu.statFuBusy::SimdFloatMultAcc             0      0.00%     64.76% # attempts to use FU when none available (Count)
system.cpu.statFuBusy::SimdFloatMatMultAcc            0      0.00%     64.76% # attempts to use FU when none available (Count)
system.cpu.statFuBusy::SimdFloatSqrt                0      0.00%     64.76% # attempts to use FU when none available (Count)
system.cpu.statFuBusy::SimdReduceAdd                0      0.00%     64.76% # attempts to use FU when none available (Count)
system.cpu.statFuBusy::SimdReduceAlu                0      0.00%     64.76% # attempts to use FU when none available (Count)
system.cpu.statFuBusy::SimdReduceCmp                0      0.00%     64.76% # attempts to use FU when none available (Count)
system.cpu.statFuBusy::SimdFloatReduceAdd            0      0.00%     64.76% # attempts to use FU when none available (Count)
system.cpu.statFuBusy::SimdFloatReduceCmp            0      0.00%     64.76% # attempts to use FU when none available (Count)
system.cpu.statFuBusy::SimdAes                      0      0.00%     64.76% # attempts to use FU when none available (Count)
system.cpu.statFuBusy::SimdAesMix                   0      0.00%     64.76% # attempts to use FU when none available (Count)
system.cpu.statFuBusy::SimdSha1Hash                 0      0.00%     64.76% # attempts to use FU when none available (Count)
system.cpu.statFuBusy::SimdSha1Hash2                0      0.00%     64.76% # attempts to use FU when none available (Count)
system.cpu.statFuBusy::SimdSha256Hash               0      0.00%     64.76% # attempts to use FU when none available (Count)
system.cpu.statFuBusy::SimdSha256Hash2              0      0.00%     64.76% # attempts to use FU when none available (Count)
system.cpu.statFuBusy::SimdShaSigma2                0      0.00%     64.76% # attempts to use FU when none available (Count)
system.cpu.statFuBusy::SimdShaSigma3                0      0.00%     64.76% # attempts to use FU when none available (Count)
system.cpu.statFuBusy::SimdPredAlu                  0      0.00%     64.76% # attempts to use FU when none available (Count)
system.cpu.statFuBusy::Matrix                       0      0.00%     64.76% # attempts to use FU when none available (Count)
system.cpu.statFuBusy::MatrixMov                    0      0.00%     64.76% # attempts to use FU when none available (Count)
system.cpu.statFuBusy::MatrixOP                     0      0.00%     64.76% # attempts to use FU when none available (Count)
system.cpu.statFuBusy::MemRead                 432875     19.68%     84.45% # attempts to use FU when none available (Count)
system.cpu.statFuBusy::MemWrite                264977     12.05%     96.50% # attempts to use FU when none available (Count)
system.cpu.statFuBusy::FloatMemRead             76206      3.47%     99.96% # attempts to use FU when none available (Count)
system.cpu.statFuBusy::FloatMemWrite              851      0.04%    100.00% # attempts to use FU when none available (Count)
system.cpu.statFuBusy::IprAccess                    0      0.00%    100.00% # attempts to use FU when none available (Count)
system.cpu.statFuBusy::InstPrefetch                 0      0.00%    100.00% # attempts to use FU when none available (Count)
system.cpu.statFuBusy::SimdUnitStrideLoad            0      0.00%    100.00% # attempts to use FU when none available (Count)
system.cpu.statFuBusy::SimdUnitStrideStore            0      0.00%    100.00% # attempts to use FU when none available (Count)
system.cpu.statFuBusy::SimdUnitStrideMaskLoad            0      0.00%    100.00% # attempts to use FU when none available (Count)
system.cpu.statFuBusy::SimdUnitStrideMaskStore            0      0.00%    100.00% # attempts to use FU when none available (Count)
system.cpu.statFuBusy::SimdStridedLoad              0      0.00%    100.00% # attempts to use FU when none available (Count)
system.cpu.statFuBusy::SimdStridedStore             0      0.00%    100.00% # attempts to use FU when none available (Count)
system.cpu.statFuBusy::SimdIndexedLoad              0      0.00%    100.00% # attempts to use FU when none available (Count)
system.cpu.statFuBusy::SimdIndexedStore             0      0.00%    100.00% # attempts to use FU when none available (Count)
system.cpu.statFuBusy::SimdWholeRegisterLoad            0      0.00%    100.00% # attempts to use FU when none available (Count)
system.cpu.statFuBusy::SimdWholeRegisterStore            0      0.00%    100.00% # attempts to use FU when none available (Count)
system.cpu.statFuBusy::SimdUnitStrideFaultOnlyFirstLoad            0      0.00%    100.00% # attempts to use FU when none available (Count)
system.cpu.statFuBusy::SimdUnitStrideSegmentedLoad            0      0.00%    100.00% # attempts to use FU when none available (Count)
system.cpu.statFuBusy::SimdUnitStrideSegmentedStore            0      0.00%    100.00% # attempts to use FU when none available (Count)
system.cpu.statFuBusy::SimdExt                      0      0.00%    100.00% # attempts to use FU when none available (Count)
system.cpu.statFuBusy::SimdFloatExt                 0      0.00%    100.00% # attempts to use FU when none available (Count)
system.cpu.statFuBusy::SimdConfig                   0      0.00%    100.00% # attempts to use FU when none available (Count)
system.cpu.statIssuedInstType_0::No_OpClass      2900041      0.40%      0.40% # Number of instructions issued per FU type, per thread (Count)
system.cpu.statIssuedInstType_0::IntAlu     447386454     61.17%     61.57% # Number of instructions issued per FU type, per thread (Count)
system.cpu.statIssuedInstType_0::IntMult       247484      0.03%     61.60% # Number of instructions issued per FU type, per thread (Count)
system.cpu.statIssuedInstType_0::IntDiv       2156638      0.29%     61.89% # Number of instructions issued per FU type, per thread (Count)
system.cpu.statIssuedInstType_0::FloatAdd     30754016      4.20%     66.10% # Number of instructions issued per FU type, per thread (Count)
system.cpu.statIssuedInstType_0::FloatCmp            0      0.00%     66.10% # Number of instructions issued per FU type, per thread (Count)
system.cpu.statIssuedInstType_0::FloatCvt         1632      0.00%     66.10% # Number of instructions issued per FU type, per thread (Count)
system.cpu.statIssuedInstType_0::FloatMult            0      0.00%     66.10% # Number of instructions issued per FU type, per thread (Count)
system.cpu.statIssuedInstType_0::FloatMultAcc            0      0.00%     66.10% # Number of instructions issued per FU type, per thread (Count)
system.cpu.statIssuedInstType_0::FloatDiv            0      0.00%     66.10% # Number of instructions issued per FU type, per thread (Count)
system.cpu.statIssuedInstType_0::FloatMisc            0      0.00%     66.10% # Number of instructions issued per FU type, per thread (Count)
system.cpu.statIssuedInstType_0::FloatSqrt            0      0.00%     66.10% # Number of instructions issued per FU type, per thread (Count)
system.cpu.statIssuedInstType_0::SimdAdd         6855      0.00%     66.10% # Number of instructions issued per FU type, per thread (Count)
system.cpu.statIssuedInstType_0::SimdAddAcc            0      0.00%     66.10% # Number of instructions issued per FU type, per thread (Count)
system.cpu.statIssuedInstType_0::SimdAlu      2884472      0.39%     66.50% # Number of instructions issued per FU type, per thread (Count)
system.cpu.statIssuedInstType_0::SimdCmp           19      0.00%     66.50% # Number of instructions issued per FU type, per thread (Count)
system.cpu.statIssuedInstType_0::SimdCvt       112896      0.02%     66.51% # Number of instructions issued per FU type, per thread (Count)
system.cpu.statIssuedInstType_0::SimdMisc       321910      0.04%     66.55% # Number of instructions issued per FU type, per thread (Count)
system.cpu.statIssuedInstType_0::SimdMult            0      0.00%     66.55% # Number of instructions issued per FU type, per thread (Count)
system.cpu.statIssuedInstType_0::SimdMultAcc            0      0.00%     66.55% # Number of instructions issued per FU type, per thread (Count)
system.cpu.statIssuedInstType_0::SimdMatMultAcc            0      0.00%     66.55% # Number of instructions issued per FU type, per thread (Count)
system.cpu.statIssuedInstType_0::SimdShift         3413      0.00%     66.55% # Number of instructions issued per FU type, per thread (Count)
system.cpu.statIssuedInstType_0::SimdShiftAcc            0      0.00%     66.55% # Number of instructions issued per FU type, per thread (Count)
system.cpu.statIssuedInstType_0::SimdDiv            0      0.00%     66.55% # Number of instructions issued per FU type, per thread (Count)
system.cpu.statIssuedInstType_0::SimdSqrt            0      0.00%     66.55% # Number of instructions issued per FU type, per thread (Count)
system.cpu.statIssuedInstType_0::SimdFloatAdd     21521027      2.94%     69.50% # Number of instructions issued per FU type, per thread (Count)
system.cpu.statIssuedInstType_0::SimdFloatAlu            0      0.00%     69.50% # Number of instructions issued per FU type, per thread (Count)
system.cpu.statIssuedInstType_0::SimdFloatCmp       393195      0.05%     69.55% # Number of instructions issued per FU type, per thread (Count)
system.cpu.statIssuedInstType_0::SimdFloatCvt     11281802      1.54%     71.09% # Number of instructions issued per FU type, per thread (Count)
system.cpu.statIssuedInstType_0::SimdFloatDiv        50187      0.01%     71.10% # Number of instructions issued per FU type, per thread (Count)
system.cpu.statIssuedInstType_0::SimdFloatMisc            0      0.00%     71.10% # Number of instructions issued per FU type, per thread (Count)
system.cpu.statIssuedInstType_0::SimdFloatMult     10249712      1.40%     72.50% # Number of instructions issued per FU type, per thread (Count)
system.cpu.statIssuedInstType_0::SimdFloatMultAcc            0      0.00%     72.50% # Number of instructions issued per FU type, per thread (Count)
system.cpu.statIssuedInstType_0::SimdFloatMatMultAcc            0      0.00%     72.50% # Number of instructions issued per FU type, per thread (Count)
system.cpu.statIssuedInstType_0::SimdFloatSqrt       945367      0.13%     72.63% # Number of instructions issued per FU type, per thread (Count)
system.cpu.statIssuedInstType_0::SimdReduceAdd            0      0.00%     72.63% # Number of instructions issued per FU type, per thread (Count)
system.cpu.statIssuedInstType_0::SimdReduceAlu            0      0.00%     72.63% # Number of instructions issued per FU type, per thread (Count)
system.cpu.statIssuedInstType_0::SimdReduceCmp            0      0.00%     72.63% # Number of instructions issued per FU type, per thread (Count)
system.cpu.statIssuedInstType_0::SimdFloatReduceAdd            0      0.00%     72.63% # Number of instructions issued per FU type, per thread (Count)
system.cpu.statIssuedInstType_0::SimdFloatReduceCmp            0      0.00%     72.63% # Number of instructions issued per FU type, per thread (Count)
system.cpu.statIssuedInstType_0::SimdAes            0      0.00%     72.63% # Number of instructions issued per FU type, per thread (Count)
system.cpu.statIssuedInstType_0::SimdAesMix            0      0.00%     72.63% # Number of instructions issued per FU type, per thread (Count)
system.cpu.statIssuedInstType_0::SimdSha1Hash            0      0.00%     72.63% # Number of instructions issued per FU type, per thread (Count)
system.cpu.statIssuedInstType_0::SimdSha1Hash2            0      0.00%     72.63% # Number of instructions issued per FU type, per thread (Count)
system.cpu.statIssuedInstType_0::SimdSha256Hash            0      0.00%     72.63% # Number of instructions issued per FU type, per thread (Count)
system.cpu.statIssuedInstType_0::SimdSha256Hash2            0      0.00%     72.63% # Number of instructions issued per FU type, per thread (Count)
system.cpu.statIssuedInstType_0::SimdShaSigma2            0      0.00%     72.63% # Number of instructions issued per FU type, per thread (Count)
system.cpu.statIssuedInstType_0::SimdShaSigma3            0      0.00%     72.63% # Number of instructions issued per FU type, per thread (Count)
system.cpu.statIssuedInstType_0::SimdPredAlu            0      0.00%     72.63% # Number of instructions issued per FU type, per thread (Count)
system.cpu.statIssuedInstType_0::Matrix             0      0.00%     72.63% # Number of instructions issued per FU type, per thread (Count)
system.cpu.statIssuedInstType_0::MatrixMov            0      0.00%     72.63% # Number of instructions issued per FU type, per thread (Count)
system.cpu.statIssuedInstType_0::MatrixOP            0      0.00%     72.63% # Number of instructions issued per FU type, per thread (Count)
system.cpu.statIssuedInstType_0::MemRead     92355202     12.63%     85.26% # Number of instructions issued per FU type, per thread (Count)
system.cpu.statIssuedInstType_0::MemWrite     29219473      4.00%     89.25% # Number of instructions issued per FU type, per thread (Count)
system.cpu.statIssuedInstType_0::FloatMemRead     72102797      9.86%     99.11% # Number of instructions issued per FU type, per thread (Count)
system.cpu.statIssuedInstType_0::FloatMemWrite      6495091      0.89%    100.00% # Number of instructions issued per FU type, per thread (Count)
system.cpu.statIssuedInstType_0::IprAccess            0      0.00%    100.00% # Number of instructions issued per FU type, per thread (Count)
system.cpu.statIssuedInstType_0::InstPrefetch            0      0.00%    100.00% # Number of instructions issued per FU type, per thread (Count)
system.cpu.statIssuedInstType_0::SimdUnitStrideLoad            0      0.00%    100.00% # Number of instructions issued per FU type, per thread (Count)
system.cpu.statIssuedInstType_0::SimdUnitStrideStore            0      0.00%    100.00% # Number of instructions issued per FU type, per thread (Count)
system.cpu.statIssuedInstType_0::SimdUnitStrideMaskLoad            0      0.00%    100.00% # Number of instructions issued per FU type, per thread (Count)
system.cpu.statIssuedInstType_0::SimdUnitStrideMaskStore            0      0.00%    100.00% # Number of instructions issued per FU type, per thread (Count)
system.cpu.statIssuedInstType_0::SimdStridedLoad            0      0.00%    100.00% # Number of instructions issued per FU type, per thread (Count)
system.cpu.statIssuedInstType_0::SimdStridedStore            0      0.00%    100.00% # Number of instructions issued per FU type, per thread (Count)
system.cpu.statIssuedInstType_0::SimdIndexedLoad            0      0.00%    100.00% # Number of instructions issued per FU type, per thread (Count)
system.cpu.statIssuedInstType_0::SimdIndexedStore            0      0.00%    100.00% # Number of instructions issued per FU type, per thread (Count)
system.cpu.statIssuedInstType_0::SimdWholeRegisterLoad            0      0.00%    100.00% # Number of instructions issued per FU type, per thread (Count)
system.cpu.statIssuedInstType_0::SimdWholeRegisterStore            0      0.00%    100.00% # Number of instructions issued per FU type, per thread (Count)
system.cpu.statIssuedInstType_0::SimdUnitStrideFaultOnlyFirstLoad            0      0.00%    100.00% # Number of instructions issued per FU type, per thread (Count)
system.cpu.statIssuedInstType_0::SimdUnitStrideSegmentedLoad            0      0.00%    100.00% # Number of instructions issued per FU type, per thread (Count)
system.cpu.statIssuedInstType_0::SimdUnitStrideSegmentedStore            0      0.00%    100.00% # Number of instructions issued per FU type, per thread (Count)
system.cpu.statIssuedInstType_0::SimdExt            0      0.00%    100.00% # Number of instructions issued per FU type, per thread (Count)
system.cpu.statIssuedInstType_0::SimdFloatExt            0      0.00%    100.00% # Number of instructions issued per FU type, per thread (Count)
system.cpu.statIssuedInstType_0::SimdConfig            0      0.00%    100.00% # Number of instructions issued per FU type, per thread (Count)
system.cpu.statIssuedInstType_0::total      731389683                       # Number of instructions issued per FU type, per thread (Count)
system.cpu.issueRate                         0.824412                       # Inst issue rate ((Count/Cycle))
system.cpu.fuBusy                             2199259                       # FU busy when requested (Count)
system.cpu.fuBusyRate                        0.003007                       # FU busy rate (busy events/executed inst) ((Count/Count))
system.cpu.intInstQueueReads               2007652350                       # Number of integer instruction queue reads (Count)
system.cpu.intInstQueueWrites               587558074                       # Number of integer instruction queue writes (Count)
system.cpu.intInstQueueWakeupAccesses       539683329                       # Number of integer instruction queue wakeup accesses (Count)
system.cpu.fpInstQueueReads                 338500118                       # Number of floating instruction queue reads (Count)
system.cpu.fpInstQueueWrites                144946217                       # Number of floating instruction queue writes (Count)
system.cpu.fpInstQueueWakeupAccesses        134214423                       # Number of floating instruction queue wakeup accesses (Count)
system.cpu.vecInstQueueReads                        0                       # Number of vector instruction queue reads (Count)
system.cpu.vecInstQueueWrites                       0                       # Number of vector instruction queue writes (Count)
system.cpu.vecInstQueueWakeupAccesses               0                       # Number of vector instruction queue wakeup accesses (Count)
system.cpu.intAluAccesses                   561501269                       # Number of integer alu accesses (Count)
system.cpu.fpAluAccesses                    169187632                       # Number of floating point alu accesses (Count)
system.cpu.vecAluAccesses                           0                       # Number of vector alu accesses (Count)
system.cpu.numSquashedInsts                   1278069                       # Number of squashed instructions skipped in execute (Count)
system.cpu.numSwp                                   0                       # Number of swp insts executed (Count)
system.cpu.timesIdled                         1410696                       # Number of times that the entire CPU went into an idle state and unscheduled itself (Count)
system.cpu.idleCycles                         6392730                       # Total number of cycles that the CPU has spent unscheduled due to idling (Cycle)
system.cpu.MemDepUnit__0.insertedLoads      113470448                       # Number of loads inserted to the mem dependence unit. (Count)
system.cpu.MemDepUnit__0.insertedStores      36636492                       # Number of stores inserted to the mem dependence unit. (Count)
system.cpu.MemDepUnit__0.conflictingLoads      3385025                       # Number of conflicting loads. (Count)
system.cpu.MemDepUnit__0.conflictingStores      2539443                       # Number of conflicting stores. (Count)
system.cpu.MemDepUnit__1.insertedLoads              0                       # Number of loads inserted to the mem dependence unit. (Count)
system.cpu.MemDepUnit__1.insertedStores             0                       # Number of stores inserted to the mem dependence unit. (Count)
system.cpu.MemDepUnit__1.conflictingLoads            0                       # Number of conflicting loads. (Count)
system.cpu.MemDepUnit__1.conflictingStores            0                       # Number of conflicting stores. (Count)
system.cpu.MemDepUnit__2.insertedLoads              0                       # Number of loads inserted to the mem dependence unit. (Count)
system.cpu.MemDepUnit__2.insertedStores             0                       # Number of stores inserted to the mem dependence unit. (Count)
system.cpu.MemDepUnit__2.conflictingLoads            0                       # Number of conflicting loads. (Count)
system.cpu.MemDepUnit__2.conflictingStores            0                       # Number of conflicting stores. (Count)
system.cpu.MemDepUnit__3.insertedLoads              0                       # Number of loads inserted to the mem dependence unit. (Count)
system.cpu.MemDepUnit__3.insertedStores             0                       # Number of stores inserted to the mem dependence unit. (Count)
system.cpu.MemDepUnit__3.conflictingLoads            0                       # Number of conflicting loads. (Count)
system.cpu.MemDepUnit__3.conflictingStores            0                       # Number of conflicting stores. (Count)
system.cpu.branchPred.lookups_0::NoBranch         1967      0.00%      0.00% # Number of BP lookups (Count)
system.cpu.branchPred.lookups_0::Return       1665102      2.09%      2.09% # Number of BP lookups (Count)
system.cpu.branchPred.lookups_0::CallDirect      1785925      2.24%      4.32% # Number of BP lookups (Count)
system.cpu.branchPred.lookups_0::CallIndirect         1168      0.00%      4.33% # Number of BP lookups (Count)
system.cpu.branchPred.lookups_0::DirectCond     67770099     84.88%     89.21% # Number of BP lookups (Count)
system.cpu.branchPred.lookups_0::DirectUncond      8308633     10.41%     99.61% # Number of BP lookups (Count)
system.cpu.branchPred.lookups_0::IndirectCond            0      0.00%     99.61% # Number of BP lookups (Count)
system.cpu.branchPred.lookups_0::IndirectUncond       307708      0.39%    100.00% # Number of BP lookups (Count)
system.cpu.branchPred.lookups_0::total       79840602                       # Number of BP lookups (Count)
system.cpu.branchPred.squashes_0::NoBranch         1614      0.02%      0.02% # Number of branches that got squashed (completely removed) as an earlier branch was mispredicted. (Count)
system.cpu.branchPred.squashes_0::Return        77171      1.11%      1.13% # Number of branches that got squashed (completely removed) as an earlier branch was mispredicted. (Count)
system.cpu.branchPred.squashes_0::CallDirect       198614      2.85%      3.98% # Number of branches that got squashed (completely removed) as an earlier branch was mispredicted. (Count)
system.cpu.branchPred.squashes_0::CallIndirect          543      0.01%      3.98% # Number of branches that got squashed (completely removed) as an earlier branch was mispredicted. (Count)
system.cpu.branchPred.squashes_0::DirectCond      6031556     86.45%     90.43% # Number of branches that got squashed (completely removed) as an earlier branch was mispredicted. (Count)
system.cpu.branchPred.squashes_0::DirectUncond       653675      9.37%     99.80% # Number of branches that got squashed (completely removed) as an earlier branch was mispredicted. (Count)
system.cpu.branchPred.squashes_0::IndirectCond            0      0.00%     99.80% # Number of branches that got squashed (completely removed) as an earlier branch was mispredicted. (Count)
system.cpu.branchPred.squashes_0::IndirectUncond        13687      0.20%    100.00% # Number of branches that got squashed (completely removed) as an earlier branch was mispredicted. (Count)
system.cpu.branchPred.squashes_0::total       6976860                       # Number of branches that got squashed (completely removed) as an earlier branch was mispredicted. (Count)
system.cpu.branchPred.corrected_0::NoBranch          511      0.02%      0.02% # Number of branches that got corrected but not yet commited. Branches get corrected by decode or after execute. Also a branch misprediction can be detected out-of-order. Therefore, a corrected branch might not end up beeing committed in case an even earlier branch was mispredicted (Count)
system.cpu.branchPred.corrected_0::Return        33435      1.47%      1.50% # Number of branches that got corrected but not yet commited. Branches get corrected by decode or after execute. Also a branch misprediction can be detected out-of-order. Therefore, a corrected branch might not end up beeing committed in case an even earlier branch was mispredicted (Count)
system.cpu.branchPred.corrected_0::CallDirect         1370      0.06%      1.56% # Number of branches that got corrected but not yet commited. Branches get corrected by decode or after execute. Also a branch misprediction can be detected out-of-order. Therefore, a corrected branch might not end up beeing committed in case an even earlier branch was mispredicted (Count)
system.cpu.branchPred.corrected_0::CallIndirect          245      0.01%      1.57% # Number of branches that got corrected but not yet commited. Branches get corrected by decode or after execute. Also a branch misprediction can be detected out-of-order. Therefore, a corrected branch might not end up beeing committed in case an even earlier branch was mispredicted (Count)
system.cpu.branchPred.corrected_0::DirectCond      2229773     98.29%     99.86% # Number of branches that got corrected but not yet commited. Branches get corrected by decode or after execute. Also a branch misprediction can be detected out-of-order. Therefore, a corrected branch might not end up beeing committed in case an even earlier branch was mispredicted (Count)
system.cpu.branchPred.corrected_0::DirectUncond         1727      0.08%     99.93% # Number of branches that got corrected but not yet commited. Branches get corrected by decode or after execute. Also a branch misprediction can be detected out-of-order. Therefore, a corrected branch might not end up beeing committed in case an even earlier branch was mispredicted (Count)
system.cpu.branchPred.corrected_0::IndirectCond            0      0.00%     99.93% # Number of branches that got corrected but not yet commited. Branches get corrected by decode or after execute. Also a branch misprediction can be detected out-of-order. Therefore, a corrected branch might not end up beeing committed in case an even earlier branch was mispredicted (Count)
system.cpu.branchPred.corrected_0::IndirectUncond         1508      0.07%    100.00% # Number of branches that got corrected but not yet commited. Branches get corrected by decode or after execute. Also a branch misprediction can be detected out-of-order. Therefore, a corrected branch might not end up beeing committed in case an even earlier branch was mispredicted (Count)
system.cpu.branchPred.corrected_0::total      2268569                       # Number of branches that got corrected but not yet commited. Branches get corrected by decode or after execute. Also a branch misprediction can be detected out-of-order. Therefore, a corrected branch might not end up beeing committed in case an even earlier branch was mispredicted (Count)
system.cpu.branchPred.earlyResteers_0::NoBranch            0                       # Number of branches that got redirected after decode. (Count)
system.cpu.branchPred.earlyResteers_0::Return            0                       # Number of branches that got redirected after decode. (Count)
system.cpu.branchPred.earlyResteers_0::CallDirect            0                       # Number of branches that got redirected after decode. (Count)
system.cpu.branchPred.earlyResteers_0::CallIndirect            0                       # Number of branches that got redirected after decode. (Count)
system.cpu.branchPred.earlyResteers_0::DirectCond            0                       # Number of branches that got redirected after decode. (Count)
system.cpu.branchPred.earlyResteers_0::DirectUncond            0                       # Number of branches that got redirected after decode. (Count)
system.cpu.branchPred.earlyResteers_0::IndirectCond            0                       # Number of branches that got redirected after decode. (Count)
system.cpu.branchPred.earlyResteers_0::IndirectUncond            0                       # Number of branches that got redirected after decode. (Count)
system.cpu.branchPred.earlyResteers_0::total            0                       # Number of branches that got redirected after decode. (Count)
system.cpu.branchPred.committed_0::NoBranch          353      0.00%      0.00% # Number of branches finally committed  (Count)
system.cpu.branchPred.committed_0::Return      1587930      2.18%      2.18% # Number of branches finally committed  (Count)
system.cpu.branchPred.committed_0::CallDirect      1587310      2.18%      4.36% # Number of branches finally committed  (Count)
system.cpu.branchPred.committed_0::CallIndirect          625      0.00%      4.36% # Number of branches finally committed  (Count)
system.cpu.branchPred.committed_0::DirectCond     61738543     84.73%     89.09% # Number of branches finally committed  (Count)
system.cpu.branchPred.committed_0::DirectUncond      7654958     10.51%     99.60% # Number of branches finally committed  (Count)
system.cpu.branchPred.committed_0::IndirectCond            0      0.00%     99.60% # Number of branches finally committed  (Count)
system.cpu.branchPred.committed_0::IndirectUncond       294021      0.40%    100.00% # Number of branches finally committed  (Count)
system.cpu.branchPred.committed_0::total     72863740                       # Number of branches finally committed  (Count)
system.cpu.branchPred.mispredicted_0::NoBranch          353      0.02%      0.02% # Number of committed branches that were mispredicted. (Count)
system.cpu.branchPred.mispredicted_0::Return        33429      1.50%      1.51% # Number of committed branches that were mispredicted. (Count)
system.cpu.branchPred.mispredicted_0::CallDirect          983      0.04%      1.56% # Number of committed branches that were mispredicted. (Count)
system.cpu.branchPred.mispredicted_0::CallIndirect          230      0.01%      1.57% # Number of committed branches that were mispredicted. (Count)
system.cpu.branchPred.mispredicted_0::DirectCond      2192985     98.30%     99.87% # Number of committed branches that were mispredicted. (Count)
system.cpu.branchPred.mispredicted_0::DirectUncond         1356      0.06%     99.93% # Number of committed branches that were mispredicted. (Count)
system.cpu.branchPred.mispredicted_0::IndirectCond            0      0.00%     99.93% # Number of committed branches that were mispredicted. (Count)
system.cpu.branchPred.mispredicted_0::IndirectUncond         1471      0.07%    100.00% # Number of committed branches that were mispredicted. (Count)
system.cpu.branchPred.mispredicted_0::total      2230807                       # Number of committed branches that were mispredicted. (Count)
system.cpu.branchPred.targetProvider_0::NoTarget     36653766     45.91%     45.91% # The component providing the target for taken branches (Count)
system.cpu.branchPred.targetProvider_0::BTB     41225605     51.63%     97.54% # The component providing the target for taken branches (Count)
system.cpu.branchPred.targetProvider_0::RAS      1665102      2.09%     99.63% # The component providing the target for taken branches (Count)
system.cpu.branchPred.targetProvider_0::Indirect       296129      0.37%    100.00% # The component providing the target for taken branches (Count)
system.cpu.branchPred.targetProvider_0::total     79840602                       # The component providing the target for taken branches (Count)
system.cpu.branchPred.targetWrong_0::NoBranch      1153228     53.76%     53.76% # Number of branches where the target was incorrect or not available at prediction time. (Count)
system.cpu.branchPred.targetWrong_0::Return       958513     44.68%     98.43% # Number of branches where the target was incorrect or not available at prediction time. (Count)
system.cpu.branchPred.targetWrong_0::CallDirect        33435      1.56%     99.99% # Number of branches where the target was incorrect or not available at prediction time. (Count)
system.cpu.branchPred.targetWrong_0::CallIndirect          160      0.01%    100.00% # Number of branches where the target was incorrect or not available at prediction time. (Count)
system.cpu.branchPred.targetWrong_0::DirectCond            0      0.00%    100.00% # Number of branches where the target was incorrect or not available at prediction time. (Count)
system.cpu.branchPred.targetWrong_0::DirectUncond            0      0.00%    100.00% # Number of branches where the target was incorrect or not available at prediction time. (Count)
system.cpu.branchPred.targetWrong_0::IndirectCond            0      0.00%    100.00% # Number of branches where the target was incorrect or not available at prediction time. (Count)
system.cpu.branchPred.targetWrong_0::IndirectUncond            0      0.00%    100.00% # Number of branches where the target was incorrect or not available at prediction time. (Count)
system.cpu.branchPred.targetWrong_0::total      2145336                       # Number of branches where the target was incorrect or not available at prediction time. (Count)
system.cpu.branchPred.condPredicted          67772066                       # Number of conditional branches predicted (Count)
system.cpu.branchPred.condPredictedTaken     31159832                       # Number of conditional branches predicted as taken (Count)
system.cpu.branchPred.condIncorrect           2268569                       # Number of conditional branches incorrect (Count)
system.cpu.branchPred.predTakenBTBMiss           2686                       # Number of branches predicted taken but missed in BTB (Count)
system.cpu.branchPred.NotTakenMispredicted      1197558                       # Number branches predicted 'not taken' but turned out to be taken (Count)
system.cpu.branchPred.TakenMispredicted       1071011                       # Number branches predicted taken but are actually not taken (Count)
system.cpu.branchPred.BTBLookups             79840602                       # Number of BTB lookups (Count)
system.cpu.branchPred.BTBUpdates              1161859                       # Number of BTB updates (Count)
system.cpu.branchPred.BTBHits                61575072                       # Number of BTB hits (Count)
system.cpu.branchPred.BTBHitRatio            0.771225                       # BTB Hit Ratio (Ratio)
system.cpu.branchPred.BTBMispredicted            3850                       # Number BTB mispredictions. No target found or target wrong (Count)
system.cpu.branchPred.indirectLookups          308876                       # Number of indirect predictor lookups. (Count)
system.cpu.branchPred.indirectHits             296129                       # Number of indirect target hits. (Count)
system.cpu.branchPred.indirectMisses            12747                       # Number of indirect misses. (Count)
system.cpu.branchPred.indirectMispredicted            0                       # Number of mispredicted indirect branches. (Count)
system.cpu.branchPred.btb.lookups::NoBranch         1967      0.00%      0.00% # Number of BTB lookups (Count)
system.cpu.branchPred.btb.lookups::Return      1665102      2.09%      2.09% # Number of BTB lookups (Count)
system.cpu.branchPred.btb.lookups::CallDirect      1785925      2.24%      4.32% # Number of BTB lookups (Count)
system.cpu.branchPred.btb.lookups::CallIndirect         1168      0.00%      4.33% # Number of BTB lookups (Count)
system.cpu.branchPred.btb.lookups::DirectCond     67770099     84.88%     89.21% # Number of BTB lookups (Count)
system.cpu.branchPred.btb.lookups::DirectUncond      8308633     10.41%     99.61% # Number of BTB lookups (Count)
system.cpu.branchPred.btb.lookups::IndirectCond            0      0.00%     99.61% # Number of BTB lookups (Count)
system.cpu.branchPred.btb.lookups::IndirectUncond       307708      0.39%    100.00% # Number of BTB lookups (Count)
system.cpu.branchPred.btb.lookups::total     79840602                       # Number of BTB lookups (Count)
system.cpu.branchPred.btb.misses::NoBranch          308      0.00%      0.00% # Number of BTB misses (Count)
system.cpu.branchPred.btb.misses::Return      1660521      9.09%      9.09% # Number of BTB misses (Count)
system.cpu.branchPred.btb.misses::CallDirect         1976      0.01%      9.10% # Number of BTB misses (Count)
system.cpu.branchPred.btb.misses::CallIndirect         1167      0.01%      9.11% # Number of BTB misses (Count)
system.cpu.branchPred.btb.misses::DirectCond     16292628     89.20%     98.31% # Number of BTB misses (Count)
system.cpu.branchPred.btb.misses::DirectUncond         1222      0.01%     98.32% # Number of BTB misses (Count)
system.cpu.branchPred.btb.misses::IndirectCond            0      0.00%     98.32% # Number of BTB misses (Count)
system.cpu.branchPred.btb.misses::IndirectUncond       307708      1.68%    100.00% # Number of BTB misses (Count)
system.cpu.branchPred.btb.misses::total      18265530                       # Number of BTB misses (Count)
system.cpu.branchPred.btb.updates::NoBranch            0      0.00%      0.00% # Number of BTB updates (Count)
system.cpu.branchPred.btb.updates::Return            0      0.00%      0.00% # Number of BTB updates (Count)
system.cpu.branchPred.btb.updates::CallDirect         1370      0.12%      0.12% # Number of BTB updates (Count)
system.cpu.branchPred.btb.updates::CallIndirect            0      0.00%      0.12% # Number of BTB updates (Count)
system.cpu.branchPred.btb.updates::DirectCond      1158762     99.73%     99.85% # Number of BTB updates (Count)
system.cpu.branchPred.btb.updates::DirectUncond         1727      0.15%    100.00% # Number of BTB updates (Count)
system.cpu.branchPred.btb.updates::IndirectCond            0      0.00%    100.00% # Number of BTB updates (Count)
system.cpu.branchPred.btb.updates::IndirectUncond            0      0.00%    100.00% # Number of BTB updates (Count)
system.cpu.branchPred.btb.updates::total      1161859                       # Number of BTB updates (Count)
system.cpu.branchPred.btb.mispredict::NoBranch            0      0.00%      0.00% # Number of BTB mispredictions. No target found or target wrong. (Count)
system.cpu.branchPred.btb.mispredict::Return            0      0.00%      0.00% # Number of BTB mispredictions. No target found or target wrong. (Count)
system.cpu.branchPred.btb.mispredict::CallDirect         1370      0.12%      0.12% # Number of BTB mispredictions. No target found or target wrong. (Count)
system.cpu.branchPred.btb.mispredict::CallIndirect            0      0.00%      0.12% # Number of BTB mispredictions. No target found or target wrong. (Count)
system.cpu.branchPred.btb.mispredict::DirectCond      1158762     99.73%     99.85% # Number of BTB mispredictions. No target found or target wrong. (Count)
system.cpu.branchPred.btb.mispredict::DirectUncond         1727      0.15%    100.00% # Number of BTB mispredictions. No target found or target wrong. (Count)
system.cpu.branchPred.btb.mispredict::IndirectCond            0      0.00%    100.00% # Number of BTB mispredictions. No target found or target wrong. (Count)
system.cpu.branchPred.btb.mispredict::IndirectUncond            0      0.00%    100.00% # Number of BTB mispredictions. No target found or target wrong. (Count)
system.cpu.branchPred.btb.mispredict::total      1161859                       # Number of BTB mispredictions. No target found or target wrong. (Count)
system.cpu.branchPred.btb.power_state.pwrStateResidencyTicks::UNDEFINED 11828575224893                       # Cumulative time (in ticks) in various power states (Tick)
system.cpu.branchPred.indirectBranchPred.lookups       308876                       # Number of lookups (Count)
system.cpu.branchPred.indirectBranchPred.hits       296129                       # Number of hits of a tag (Count)
system.cpu.branchPred.indirectBranchPred.misses        12747                       # Number of misses (Count)
system.cpu.branchPred.indirectBranchPred.targetRecords         1753                       # Number of targets that where recorded/installed in the cache (Count)
system.cpu.branchPred.indirectBranchPred.indirectRecords       310629                       # Number of indirect branches/calls recorded in the indirect hist (Count)
system.cpu.branchPred.indirectBranchPred.speculativeOverflows            0                       # Number of times more than the allowed capacity for speculative branches/calls where in flight and destroy the path history (Count)
system.cpu.branchPred.ras.pushes              1864264                       # Number of times a PC was pushed onto the RAS (Count)
system.cpu.branchPred.ras.pops                1864259                       # Number of times a PC was poped from the RAS (Count)
system.cpu.branchPred.ras.squashes             276328                       # Number of times the stack operation was squashed due to wrong speculation. (Count)
system.cpu.branchPred.ras.used                1587930                       # Number of times the RAS is the provider (Count)
system.cpu.branchPred.ras.correct             1554501                       # Number of times the RAS is the provider and the prediction is correct (Count)
system.cpu.branchPred.ras.incorrect             33429                       # Number of times the RAS is the provider and the prediction is wrong (Count)
system.cpu.commit.commitSquashedInsts        42541653                       # The number of squashed insts skipped by commit (Count)
system.cpu.commit.commitNonSpecStalls          206989                       # The number of times commit has been forced to stall to communicate backwards (Count)
system.cpu.commit.branchMispredicts           2261129                       # The number of times a branch was mispredicted (Count)
system.cpu.commit.numCommittedDist::samples    874289509                       # Number of insts commited each cycle (Count)
system.cpu.commit.numCommittedDist::mean     0.741075                       # Number of insts commited each cycle (Count)
system.cpu.commit.numCommittedDist::stdev     1.675268                       # Number of insts commited each cycle (Count)
system.cpu.commit.numCommittedDist::underflows            0      0.00%      0.00% # Number of insts commited each cycle (Count)
system.cpu.commit.numCommittedDist::0       649422392     74.28%     74.28% # Number of insts commited each cycle (Count)
system.cpu.commit.numCommittedDist::1        83099561      9.50%     83.78% # Number of insts commited each cycle (Count)
system.cpu.commit.numCommittedDist::2        37243121      4.26%     88.04% # Number of insts commited each cycle (Count)
system.cpu.commit.numCommittedDist::3        47100640      5.39%     93.43% # Number of insts commited each cycle (Count)
system.cpu.commit.numCommittedDist::4        14465470      1.65%     95.09% # Number of insts commited each cycle (Count)
system.cpu.commit.numCommittedDist::5        12119063      1.39%     96.47% # Number of insts commited each cycle (Count)
system.cpu.commit.numCommittedDist::6         5961809      0.68%     97.15% # Number of insts commited each cycle (Count)
system.cpu.commit.numCommittedDist::7         4221067      0.48%     97.64% # Number of insts commited each cycle (Count)
system.cpu.commit.numCommittedDist::8        20656386      2.36%    100.00% # Number of insts commited each cycle (Count)
system.cpu.commit.numCommittedDist::overflows            0      0.00%    100.00% # Number of insts commited each cycle (Count)
system.cpu.commit.numCommittedDist::min_value            0                       # Number of insts commited each cycle (Count)
system.cpu.commit.numCommittedDist::max_value            8                       # Number of insts commited each cycle (Count)
system.cpu.commit.numCommittedDist::total    874289509                       # Number of insts commited each cycle (Count)
system.cpu.commit.amos                              0                       # Number of atomic instructions committed (Count)
system.cpu.commit.membars                      137354                       # Number of memory barriers committed (Count)
system.cpu.commit.functionCalls               1587935                       # Number of function calls committed. (Count)
system.cpu.commit.committedInstType_0::No_OpClass      2639026      0.41%      0.41% # Class of committed instruction (Count)
system.cpu.commit.committedInstType_0::IntAlu    427069468     65.91%     66.32% # Class of committed instruction (Count)
system.cpu.commit.committedInstType_0::IntMult       241214      0.04%     66.36% # Class of committed instruction (Count)
system.cpu.commit.committedInstType_0::IntDiv      1994122      0.31%     66.67% # Class of committed instruction (Count)
system.cpu.commit.committedInstType_0::FloatAdd     28568572      4.41%     71.08% # Class of committed instruction (Count)
system.cpu.commit.committedInstType_0::FloatCmp            0      0.00%     71.08% # Class of committed instruction (Count)
system.cpu.commit.committedInstType_0::FloatCvt         1632      0.00%     71.08% # Class of committed instruction (Count)
system.cpu.commit.committedInstType_0::FloatMult            0      0.00%     71.08% # Class of committed instruction (Count)
system.cpu.commit.committedInstType_0::FloatMultAcc            0      0.00%     71.08% # Class of committed instruction (Count)
system.cpu.commit.committedInstType_0::FloatDiv            0      0.00%     71.08% # Class of committed instruction (Count)
system.cpu.commit.committedInstType_0::FloatMisc            0      0.00%     71.08% # Class of committed instruction (Count)
system.cpu.commit.committedInstType_0::FloatSqrt            0      0.00%     71.08% # Class of committed instruction (Count)
system.cpu.commit.committedInstType_0::SimdAdd         6810      0.00%     71.08% # Class of committed instruction (Count)
system.cpu.commit.committedInstType_0::SimdAddAcc            0      0.00%     71.08% # Class of committed instruction (Count)
system.cpu.commit.committedInstType_0::SimdAlu      2789764      0.43%     71.51% # Class of committed instruction (Count)
system.cpu.commit.committedInstType_0::SimdCmp           18      0.00%     71.51% # Class of committed instruction (Count)
system.cpu.commit.committedInstType_0::SimdCvt       112606      0.02%     71.53% # Class of committed instruction (Count)
system.cpu.commit.committedInstType_0::SimdMisc       321675      0.05%     71.58% # Class of committed instruction (Count)
system.cpu.commit.committedInstType_0::SimdMult            0      0.00%     71.58% # Class of committed instruction (Count)
system.cpu.commit.committedInstType_0::SimdMultAcc            0      0.00%     71.58% # Class of committed instruction (Count)
system.cpu.commit.committedInstType_0::SimdMatMultAcc            0      0.00%     71.58% # Class of committed instruction (Count)
system.cpu.commit.committedInstType_0::SimdShift         2207      0.00%     71.58% # Class of committed instruction (Count)
system.cpu.commit.committedInstType_0::SimdShiftAcc            0      0.00%     71.58% # Class of committed instruction (Count)
system.cpu.commit.committedInstType_0::SimdDiv            0      0.00%     71.58% # Class of committed instruction (Count)
system.cpu.commit.committedInstType_0::SimdSqrt            0      0.00%     71.58% # Class of committed instruction (Count)
system.cpu.commit.committedInstType_0::SimdFloatAdd     21281781      3.28%     74.86% # Class of committed instruction (Count)
system.cpu.commit.committedInstType_0::SimdFloatAlu            0      0.00%     74.86% # Class of committed instruction (Count)
system.cpu.commit.committedInstType_0::SimdFloatCmp       393195      0.06%     74.92% # Class of committed instruction (Count)
system.cpu.commit.committedInstType_0::SimdFloatCvt     11137592      1.72%     76.64% # Class of committed instruction (Count)
system.cpu.commit.committedInstType_0::SimdFloatDiv        50187      0.01%     76.65% # Class of committed instruction (Count)
system.cpu.commit.committedInstType_0::SimdFloatMisc            0      0.00%     76.65% # Class of committed instruction (Count)
system.cpu.commit.committedInstType_0::SimdFloatMult     10249707      1.58%     78.23% # Class of committed instruction (Count)
system.cpu.commit.committedInstType_0::SimdFloatMultAcc            0      0.00%     78.23% # Class of committed instruction (Count)
system.cpu.commit.committedInstType_0::SimdFloatMatMultAcc            0      0.00%     78.23% # Class of committed instruction (Count)
system.cpu.commit.committedInstType_0::SimdFloatSqrt       935311      0.14%     78.37% # Class of committed instruction (Count)
system.cpu.commit.committedInstType_0::SimdReduceAdd            0      0.00%     78.37% # Class of committed instruction (Count)
system.cpu.commit.committedInstType_0::SimdReduceAlu            0      0.00%     78.37% # Class of committed instruction (Count)
system.cpu.commit.committedInstType_0::SimdReduceCmp            0      0.00%     78.37% # Class of committed instruction (Count)
system.cpu.commit.committedInstType_0::SimdFloatReduceAdd            0      0.00%     78.37% # Class of committed instruction (Count)
system.cpu.commit.committedInstType_0::SimdFloatReduceCmp            0      0.00%     78.37% # Class of committed instruction (Count)
system.cpu.commit.committedInstType_0::SimdAes            0      0.00%     78.37% # Class of committed instruction (Count)
system.cpu.commit.committedInstType_0::SimdAesMix            0      0.00%     78.37% # Class of committed instruction (Count)
system.cpu.commit.committedInstType_0::SimdSha1Hash            0      0.00%     78.37% # Class of committed instruction (Count)
system.cpu.commit.committedInstType_0::SimdSha1Hash2            0      0.00%     78.37% # Class of committed instruction (Count)
system.cpu.commit.committedInstType_0::SimdSha256Hash            0      0.00%     78.37% # Class of committed instruction (Count)
system.cpu.commit.committedInstType_0::SimdSha256Hash2            0      0.00%     78.37% # Class of committed instruction (Count)
system.cpu.commit.committedInstType_0::SimdShaSigma2            0      0.00%     78.37% # Class of committed instruction (Count)
system.cpu.commit.committedInstType_0::SimdShaSigma3            0      0.00%     78.37% # Class of committed instruction (Count)
system.cpu.commit.committedInstType_0::SimdPredAlu            0      0.00%     78.37% # Class of committed instruction (Count)
system.cpu.commit.committedInstType_0::Matrix            0      0.00%     78.37% # Class of committed instruction (Count)
system.cpu.commit.committedInstType_0::MatrixMov            0      0.00%     78.37% # Class of committed instruction (Count)
system.cpu.commit.committedInstType_0::MatrixOP            0      0.00%     78.37% # Class of committed instruction (Count)
system.cpu.commit.committedInstType_0::MemRead     68736143     10.61%     88.98% # Class of committed instruction (Count)
system.cpu.commit.committedInstType_0::MemWrite     28298044      4.37%     93.35% # Class of committed instruction (Count)
system.cpu.commit.committedInstType_0::FloatMemRead     37188511      5.74%     99.09% # Class of committed instruction (Count)
system.cpu.commit.committedInstType_0::FloatMemWrite      5896744      0.91%    100.00% # Class of committed instruction (Count)
system.cpu.commit.committedInstType_0::IprAccess            0      0.00%    100.00% # Class of committed instruction (Count)
system.cpu.commit.committedInstType_0::InstPrefetch            0      0.00%    100.00% # Class of committed instruction (Count)
system.cpu.commit.committedInstType_0::SimdUnitStrideLoad            0      0.00%    100.00% # Class of committed instruction (Count)
system.cpu.commit.committedInstType_0::SimdUnitStrideStore            0      0.00%    100.00% # Class of committed instruction (Count)
system.cpu.commit.committedInstType_0::SimdUnitStrideMaskLoad            0      0.00%    100.00% # Class of committed instruction (Count)
system.cpu.commit.committedInstType_0::SimdUnitStrideMaskStore            0      0.00%    100.00% # Class of committed instruction (Count)
system.cpu.commit.committedInstType_0::SimdStridedLoad            0      0.00%    100.00% # Class of committed instruction (Count)
system.cpu.commit.committedInstType_0::SimdStridedStore            0      0.00%    100.00% # Class of committed instruction (Count)
system.cpu.commit.committedInstType_0::SimdIndexedLoad            0      0.00%    100.00% # Class of committed instruction (Count)
system.cpu.commit.committedInstType_0::SimdIndexedStore            0      0.00%    100.00% # Class of committed instruction (Count)
system.cpu.commit.committedInstType_0::SimdWholeRegisterLoad            0      0.00%    100.00% # Class of committed instruction (Count)
system.cpu.commit.committedInstType_0::SimdWholeRegisterStore            0      0.00%    100.00% # Class of committed instruction (Count)
system.cpu.commit.committedInstType_0::SimdUnitStrideFaultOnlyFirstLoad            0      0.00%    100.00% # Class of committed instruction (Count)
system.cpu.commit.committedInstType_0::SimdUnitStrideSegmentedLoad            0      0.00%    100.00% # Class of committed instruction (Count)
system.cpu.commit.committedInstType_0::SimdUnitStrideSegmentedStore            0      0.00%    100.00% # Class of committed instruction (Count)
system.cpu.commit.committedInstType_0::SimdExt            0      0.00%    100.00% # Class of committed instruction (Count)
system.cpu.commit.committedInstType_0::SimdFloatExt            0      0.00%    100.00% # Class of committed instruction (Count)
system.cpu.commit.committedInstType_0::SimdConfig            0      0.00%    100.00% # Class of committed instruction (Count)
system.cpu.commit.committedInstType_0::total    647914329                       # Class of committed instruction (Count)
system.cpu.commit.commitEligibleSamples      20656386                       # number cycles where commit BW limit reached (Cycle)
system.cpu.commitStats0.numInsts            339320547                       # Number of instructions committed (thread level) (Count)
system.cpu.commitStats0.numOps              647914329                       # Number of ops (including micro ops) committed (thread level) (Count)
system.cpu.commitStats0.numInstsNotNOP      339320547                       # Number of instructions committed excluding NOPs or prefetches (Count)
system.cpu.commitStats0.numOpsNotNOP        647914329                       # Number of Ops (including micro ops) Simulated (Count)
system.cpu.commitStats0.cpi                  2.614535                       # CPI: cycles per instruction (thread level) ((Cycle/Count))
system.cpu.commitStats0.ipc                  0.382477                       # IPC: instructions per cycle (thread level) ((Count/Cycle))
system.cpu.commitStats0.numMemRefs          140119442                       # Number of memory references committed (Count)
system.cpu.commitStats0.numFpInsts          130308471                       # Number of float instructions (Count)
system.cpu.commitStats0.numIntInsts         551442703                       # Number of integer instructions (Count)
system.cpu.commitStats0.numLoadInsts        105924654                       # Number of load instructions (Count)
system.cpu.commitStats0.numStoreInsts        34194788                       # Number of store instructions (Count)
system.cpu.commitStats0.numVecInsts                 0                       # Number of vector instructions (Count)
system.cpu.commitStats0.committedInstType::No_OpClass      2639026      0.41%      0.41% # Class of committed instruction. (Count)
system.cpu.commitStats0.committedInstType::IntAlu    427069468     65.91%     66.32% # Class of committed instruction. (Count)
system.cpu.commitStats0.committedInstType::IntMult       241214      0.04%     66.36% # Class of committed instruction. (Count)
system.cpu.commitStats0.committedInstType::IntDiv      1994122      0.31%     66.67% # Class of committed instruction. (Count)
system.cpu.commitStats0.committedInstType::FloatAdd     28568572      4.41%     71.08% # Class of committed instruction. (Count)
system.cpu.commitStats0.committedInstType::FloatCmp            0      0.00%     71.08% # Class of committed instruction. (Count)
system.cpu.commitStats0.committedInstType::FloatCvt         1632      0.00%     71.08% # Class of committed instruction. (Count)
system.cpu.commitStats0.committedInstType::FloatMult            0      0.00%     71.08% # Class of committed instruction. (Count)
system.cpu.commitStats0.committedInstType::FloatMultAcc            0      0.00%     71.08% # Class of committed instruction. (Count)
system.cpu.commitStats0.committedInstType::FloatDiv            0      0.00%     71.08% # Class of committed instruction. (Count)
system.cpu.commitStats0.committedInstType::FloatMisc            0      0.00%     71.08% # Class of committed instruction. (Count)
system.cpu.commitStats0.committedInstType::FloatSqrt            0      0.00%     71.08% # Class of committed instruction. (Count)
system.cpu.commitStats0.committedInstType::SimdAdd         6810      0.00%     71.08% # Class of committed instruction. (Count)
system.cpu.commitStats0.committedInstType::SimdAddAcc            0      0.00%     71.08% # Class of committed instruction. (Count)
system.cpu.commitStats0.committedInstType::SimdAlu      2789764      0.43%     71.51% # Class of committed instruction. (Count)
system.cpu.commitStats0.committedInstType::SimdCmp           18      0.00%     71.51% # Class of committed instruction. (Count)
system.cpu.commitStats0.committedInstType::SimdCvt       112606      0.02%     71.53% # Class of committed instruction. (Count)
system.cpu.commitStats0.committedInstType::SimdMisc       321675      0.05%     71.58% # Class of committed instruction. (Count)
system.cpu.commitStats0.committedInstType::SimdMult            0      0.00%     71.58% # Class of committed instruction. (Count)
system.cpu.commitStats0.committedInstType::SimdMultAcc            0      0.00%     71.58% # Class of committed instruction. (Count)
system.cpu.commitStats0.committedInstType::SimdMatMultAcc            0      0.00%     71.58% # Class of committed instruction. (Count)
system.cpu.commitStats0.committedInstType::SimdShift         2207      0.00%     71.58% # Class of committed instruction. (Count)
system.cpu.commitStats0.committedInstType::SimdShiftAcc            0      0.00%     71.58% # Class of committed instruction. (Count)
system.cpu.commitStats0.committedInstType::SimdDiv            0      0.00%     71.58% # Class of committed instruction. (Count)
system.cpu.commitStats0.committedInstType::SimdSqrt            0      0.00%     71.58% # Class of committed instruction. (Count)
system.cpu.commitStats0.committedInstType::SimdFloatAdd     21281781      3.28%     74.86% # Class of committed instruction. (Count)
system.cpu.commitStats0.committedInstType::SimdFloatAlu            0      0.00%     74.86% # Class of committed instruction. (Count)
system.cpu.commitStats0.committedInstType::SimdFloatCmp       393195      0.06%     74.92% # Class of committed instruction. (Count)
system.cpu.commitStats0.committedInstType::SimdFloatCvt     11137592      1.72%     76.64% # Class of committed instruction. (Count)
system.cpu.commitStats0.committedInstType::SimdFloatDiv        50187      0.01%     76.65% # Class of committed instruction. (Count)
system.cpu.commitStats0.committedInstType::SimdFloatMisc            0      0.00%     76.65% # Class of committed instruction. (Count)
system.cpu.commitStats0.committedInstType::SimdFloatMult     10249707      1.58%     78.23% # Class of committed instruction. (Count)
system.cpu.commitStats0.committedInstType::SimdFloatMultAcc            0      0.00%     78.23% # Class of committed instruction. (Count)
system.cpu.commitStats0.committedInstType::SimdFloatMatMultAcc            0      0.00%     78.23% # Class of committed instruction. (Count)
system.cpu.commitStats0.committedInstType::SimdFloatSqrt       935311      0.14%     78.37% # Class of committed instruction. (Count)
system.cpu.commitStats0.committedInstType::SimdReduceAdd            0      0.00%     78.37% # Class of committed instruction. (Count)
system.cpu.commitStats0.committedInstType::SimdReduceAlu            0      0.00%     78.37% # Class of committed instruction. (Count)
system.cpu.commitStats0.committedInstType::SimdReduceCmp            0      0.00%     78.37% # Class of committed instruction. (Count)
system.cpu.commitStats0.committedInstType::SimdFloatReduceAdd            0      0.00%     78.37% # Class of committed instruction. (Count)
system.cpu.commitStats0.committedInstType::SimdFloatReduceCmp            0      0.00%     78.37% # Class of committed instruction. (Count)
system.cpu.commitStats0.committedInstType::SimdAes            0      0.00%     78.37% # Class of committed instruction. (Count)
system.cpu.commitStats0.committedInstType::SimdAesMix            0      0.00%     78.37% # Class of committed instruction. (Count)
system.cpu.commitStats0.committedInstType::SimdSha1Hash            0      0.00%     78.37% # Class of committed instruction. (Count)
system.cpu.commitStats0.committedInstType::SimdSha1Hash2            0      0.00%     78.37% # Class of committed instruction. (Count)
system.cpu.commitStats0.committedInstType::SimdSha256Hash            0      0.00%     78.37% # Class of committed instruction. (Count)
system.cpu.commitStats0.committedInstType::SimdSha256Hash2            0      0.00%     78.37% # Class of committed instruction. (Count)
system.cpu.commitStats0.committedInstType::SimdShaSigma2            0      0.00%     78.37% # Class of committed instruction. (Count)
system.cpu.commitStats0.committedInstType::SimdShaSigma3            0      0.00%     78.37% # Class of committed instruction. (Count)
system.cpu.commitStats0.committedInstType::SimdPredAlu            0      0.00%     78.37% # Class of committed instruction. (Count)
system.cpu.commitStats0.committedInstType::Matrix            0      0.00%     78.37% # Class of committed instruction. (Count)
system.cpu.commitStats0.committedInstType::MatrixMov            0      0.00%     78.37% # Class of committed instruction. (Count)
system.cpu.commitStats0.committedInstType::MatrixOP            0      0.00%     78.37% # Class of committed instruction. (Count)
system.cpu.commitStats0.committedInstType::MemRead     68736143     10.61%     88.98% # Class of committed instruction. (Count)
system.cpu.commitStats0.committedInstType::MemWrite     28298044      4.37%     93.35% # Class of committed instruction. (Count)
system.cpu.commitStats0.committedInstType::FloatMemRead     37188511      5.74%     99.09% # Class of committed instruction. (Count)
system.cpu.commitStats0.committedInstType::FloatMemWrite      5896744      0.91%    100.00% # Class of committed instruction. (Count)
system.cpu.commitStats0.committedInstType::IprAccess            0      0.00%    100.00% # Class of committed instruction. (Count)
system.cpu.commitStats0.committedInstType::InstPrefetch            0      0.00%    100.00% # Class of committed instruction. (Count)
system.cpu.commitStats0.committedInstType::SimdUnitStrideLoad            0      0.00%    100.00% # Class of committed instruction. (Count)
system.cpu.commitStats0.committedInstType::SimdUnitStrideStore            0      0.00%    100.00% # Class of committed instruction. (Count)
system.cpu.commitStats0.committedInstType::SimdUnitStrideMaskLoad            0      0.00%    100.00% # Class of committed instruction. (Count)
system.cpu.commitStats0.committedInstType::SimdUnitStrideMaskStore            0      0.00%    100.00% # Class of committed instruction. (Count)
system.cpu.commitStats0.committedInstType::SimdStridedLoad            0      0.00%    100.00% # Class of committed instruction. (Count)
system.cpu.commitStats0.committedInstType::SimdStridedStore            0      0.00%    100.00% # Class of committed instruction. (Count)
system.cpu.commitStats0.committedInstType::SimdIndexedLoad            0      0.00%    100.00% # Class of committed instruction. (Count)
system.cpu.commitStats0.committedInstType::SimdIndexedStore            0      0.00%    100.00% # Class of committed instruction. (Count)
system.cpu.commitStats0.committedInstType::SimdWholeRegisterLoad            0      0.00%    100.00% # Class of committed instruction. (Count)
system.cpu.commitStats0.committedInstType::SimdWholeRegisterStore            0      0.00%    100.00% # Class of committed instruction. (Count)
system.cpu.commitStats0.committedInstType::SimdUnitStrideFaultOnlyFirstLoad            0      0.00%    100.00% # Class of committed instruction. (Count)
system.cpu.commitStats0.committedInstType::SimdUnitStrideSegmentedLoad            0      0.00%    100.00% # Class of committed instruction. (Count)
system.cpu.commitStats0.committedInstType::SimdUnitStrideSegmentedStore            0      0.00%    100.00% # Class of committed instruction. (Count)
system.cpu.commitStats0.committedInstType::SimdExt            0      0.00%    100.00% # Class of committed instruction. (Count)
system.cpu.commitStats0.committedInstType::SimdFloatExt            0      0.00%    100.00% # Class of committed instruction. (Count)
system.cpu.commitStats0.committedInstType::SimdConfig            0      0.00%    100.00% # Class of committed instruction. (Count)
system.cpu.commitStats0.committedInstType::total    647914329                       # Class of committed instruction. (Count)
system.cpu.commitStats0.committedControl::IsControl     72863740                       # Class of control type instructions committed (Count)
system.cpu.commitStats0.committedControl::IsDirectControl     70980811                       # Class of control type instructions committed (Count)
system.cpu.commitStats0.committedControl::IsIndirectControl      1882576                       # Class of control type instructions committed (Count)
system.cpu.commitStats0.committedControl::IsCondControl     61738543                       # Class of control type instructions committed (Count)
system.cpu.commitStats0.committedControl::IsUncondControl     11124844                       # Class of control type instructions committed (Count)
system.cpu.commitStats0.committedControl::IsCall      1587935                       # Class of control type instructions committed (Count)
system.cpu.commitStats0.committedControl::IsReturn      1587930                       # Class of control type instructions committed (Count)
system.cpu.decode.idleCycles                636471350                       # Number of cycles decode is idle (Cycle)
system.cpu.decode.blockedCycles             132812249                       # Number of cycles decode is blocked (Cycle)
system.cpu.decode.runCycles                 101471452                       # Number of cycles decode is running (Cycle)
system.cpu.decode.unblockCycles               7695824                       # Number of cycles decode is unblocking (Cycle)
system.cpu.decode.squashCycles                2321717                       # Number of cycles decode is squashing (Cycle)
system.cpu.decode.branchResolved             40186032                       # Number of times decode resolved a branch (Count)
system.cpu.decode.branchMispred                  8365                       # Number of times decode detected a branch misprediction (Count)
system.cpu.decode.decodedInsts              696838134                       # Number of instructions handled by decode (Count)
system.cpu.decode.squashedInsts                 35097                       # Number of squashed instructions handled by decode (Count)
system.cpu.executeStats0.numInsts           730111614                       # Number of executed instructions (Count)
system.cpu.executeStats0.numNop                     0                       # Number of nop insts executed (Count)
system.cpu.executeStats0.numBranches         75294907                       # Number of branches executed (Count)
system.cpu.executeStats0.numLoadInsts       164088303                       # Number of load instructions executed (Count)
system.cpu.executeStats0.numStoreInsts       35628973                       # Number of stores executed (Count)
system.cpu.executeStats0.instRate            0.822971                       # Inst execution rate ((Count/Cycle))
system.cpu.executeStats0.numCCRegReads      396846827                       # Number of times the CC registers were read (Count)
system.cpu.executeStats0.numCCRegWrites     205536439                       # Number of times the CC registers were written (Count)
system.cpu.executeStats0.numFpRegReads      157896899                       # Number of times the floating registers were read (Count)
system.cpu.executeStats0.numFpRegWrites     116526196                       # Number of times the floating registers were written (Count)
system.cpu.executeStats0.numIntRegReads     721188434                       # Number of times the integer registers were read (Count)
system.cpu.executeStats0.numIntRegWrites    388799835                       # Number of times the integer registers were written (Count)
system.cpu.executeStats0.numMemRefs         199717276                       # Number of memory refs (Count)
system.cpu.executeStats0.numMiscRegReads    341309954                       # Number of times the Misc registers were read (Count)
system.cpu.executeStats0.numMiscRegWrites          918                       # Number of times the Misc registers were written (Count)
system.cpu.executeStats0.numVecAluAccesses            0                       # Number of vector alu accesses (Count)
system.cpu.executeStats0.numDiscardedOps            0                       # Number of ops (including micro ops) which were discarded before commit (Count)
system.cpu.fetch.predictedBranches           43186836                       # Number of branches that fetch has predicted taken (Count)
system.cpu.fetch.cycles                     199687321                       # Number of cycles fetch has run and was not squashing or blocked (Cycle)
system.cpu.fetch.squashCycles                 4659948                       # Number of cycles fetch has spent squashing (Cycle)
system.cpu.fetch.miscStallCycles                92368                       # Number of cycles fetch has spent waiting on interrupts, or bad addresses, or out of MSHRs (Cycle)
system.cpu.fetch.pendingTrapStallCycles          7033                       # Number of stall cycles due to pending traps (Cycle)
system.cpu.fetch.icacheWaitRetryStallCycles         3657                       # Number of stall cycles due to full MSHR (Cycle)
[...]
system.mem_ctrl.dram.bwRead::cpu.data        37857188                       # Total read bandwidth from this memory ((Byte/Second))
system.mem_ctrl.dram.bwRead::total          298286400                       # Total read bandwidth from this memory ((Byte/Second))
system.mem_ctrl.dram.bwInstRead::cpu.inst    260429212                       # Instruction read bandwidth from this memory ((Byte/Second))
system.mem_ctrl.dram.bwInstRead::total      260429212                       # Instruction read bandwidth from this memory ((Byte/Second))
system.mem_ctrl.dram.bwWrite::cpu.data       28975663                       # Write bandwidth from this memory ((Byte/Second))
system.mem_ctrl.dram.bwWrite::total          28975663                       # Write bandwidth from this memory ((Byte/Second))
system.mem_ctrl.dram.bwTotal::cpu.inst      260429212                       # Total bandwidth to/from this memory ((Byte/Second))
system.mem_ctrl.dram.bwTotal::cpu.data       66832851                       # Total bandwidth to/from this memory ((Byte/Second))
system.mem_ctrl.dram.bwTotal::total         327262063                       # Total bandwidth to/from this memory ((Byte/Second))
system.mem_ctrl.dram.readBursts              54385726                       # Number of DRAM read bursts (Count)
system.mem_ctrl.dram.writeBursts               291466                       # Number of DRAM write bursts (Count)
system.mem_ctrl.dram.perBankRdBursts::0       1857051                       # Per bank write bursts (Count)
system.mem_ctrl.dram.perBankRdBursts::1        868354                       # Per bank write bursts (Count)
system.mem_ctrl.dram.perBankRdBursts::2        958398                       # Per bank write bursts (Count)
system.mem_ctrl.dram.perBankRdBursts::3      14577655                       # Per bank write bursts (Count)
system.mem_ctrl.dram.perBankRdBursts::4        968642                       # Per bank write bursts (Count)
system.mem_ctrl.dram.perBankRdBursts::5       9740940                       # Per bank write bursts (Count)
system.mem_ctrl.dram.perBankRdBursts::6       3999859                       # Per bank write bursts (Count)
system.mem_ctrl.dram.perBankRdBursts::7       1304396                       # Per bank write bursts (Count)
system.mem_ctrl.dram.perBankRdBursts::8       2309222                       # Per bank write bursts (Count)
system.mem_ctrl.dram.perBankRdBursts::9        455409                       # Per bank write bursts (Count)
system.mem_ctrl.dram.perBankRdBursts::10       455560                       # Per bank write bursts (Count)
system.mem_ctrl.dram.perBankRdBursts::11       496363                       # Per bank write bursts (Count)
system.mem_ctrl.dram.perBankRdBursts::12      6784813                       # Per bank write bursts (Count)
system.mem_ctrl.dram.perBankRdBursts::13      2095211                       # Per bank write bursts (Count)
system.mem_ctrl.dram.perBankRdBursts::14      1933694                       # Per bank write bursts (Count)
system.mem_ctrl.dram.perBankRdBursts::15      5580159                       # Per bank write bursts (Count)
system.mem_ctrl.dram.perBankWrBursts::0         13325                       # Per bank write bursts (Count)
system.mem_ctrl.dram.perBankWrBursts::1         22479                       # Per bank write bursts (Count)
system.mem_ctrl.dram.perBankWrBursts::2         13215                       # Per bank write bursts (Count)
system.mem_ctrl.dram.perBankWrBursts::3         16061                       # Per bank write bursts (Count)
system.mem_ctrl.dram.perBankWrBursts::4         13243                       # Per bank write bursts (Count)
system.mem_ctrl.dram.perBankWrBursts::5         80087                       # Per bank write bursts (Count)
system.mem_ctrl.dram.perBankWrBursts::6         13396                       # Per bank write bursts (Count)
system.mem_ctrl.dram.perBankWrBursts::7         13051                       # Per bank write bursts (Count)
system.mem_ctrl.dram.perBankWrBursts::8         13074                       # Per bank write bursts (Count)
system.mem_ctrl.dram.perBankWrBursts::9         13495                       # Per bank write bursts (Count)
system.mem_ctrl.dram.perBankWrBursts::10        13082                       # Per bank write bursts (Count)
system.mem_ctrl.dram.perBankWrBursts::11        13056                       # Per bank write bursts (Count)
system.mem_ctrl.dram.perBankWrBursts::12        13090                       # Per bank write bursts (Count)
system.mem_ctrl.dram.perBankWrBursts::13        13944                       # Per bank write bursts (Count)
system.mem_ctrl.dram.perBankWrBursts::14        13548                       # Per bank write bursts (Count)
system.mem_ctrl.dram.perBankWrBursts::15        13320                       # Per bank write bursts (Count)
system.mem_ctrl.dram.totQLat             532480325018                       # Total ticks spent queuing (Tick)
system.mem_ctrl.dram.totBusLat           271928630000                       # Total ticks spent in databus transfers (Tick)
system.mem_ctrl.dram.totMemAccLat        1552212687518                       # Total ticks spent from burst creation until serviced by the DRAM (Tick)
system.mem_ctrl.dram.avgQLat                  9790.81                       # Average queueing delay per DRAM burst ((Tick/Count))
system.mem_ctrl.dram.avgBusLat                5000.00                       # Average bus latency per DRAM burst ((Tick/Count))
system.mem_ctrl.dram.avgMemAccLat            28540.81                       # Average memory access latency per DRAM burst ((Tick/Count))
system.mem_ctrl.dram.readRowHits             43139694                       # Number of row buffer hits during reads (Count)
system.mem_ctrl.dram.writeRowHits              259981                       # Number of row buffer hits during writes (Count)
system.mem_ctrl.dram.readRowHitRate             79.32                       # Row buffer hit rate for reads (Ratio)
system.mem_ctrl.dram.writeRowHitRate            89.20                       # Row buffer hit rate for writes (Ratio)
system.mem_ctrl.dram.bytesPerActivate::samples     11277515                       # Bytes accessed per row activation (Byte)
system.mem_ctrl.dram.bytesPerActivate::mean   310.293538                       # Bytes accessed per row activation (Byte)
system.mem_ctrl.dram.bytesPerActivate::gmean   188.987427                       # Bytes accessed per row activation (Byte)
system.mem_ctrl.dram.bytesPerActivate::stdev   324.139196                       # Bytes accessed per row activation (Byte)
system.mem_ctrl.dram.bytesPerActivate::0-127      3689337     32.71%     32.71% # Bytes accessed per row activation (Byte)
system.mem_ctrl.dram.bytesPerActivate::128-255      3143432     27.87%     60.59% # Bytes accessed per row activation (Byte)
system.mem_ctrl.dram.bytesPerActivate::256-383      1259128     11.16%     71.75% # Bytes accessed per row activation (Byte)
system.mem_ctrl.dram.bytesPerActivate::384-511       845828      7.50%     79.25% # Bytes accessed per row activation (Byte)
system.mem_ctrl.dram.bytesPerActivate::512-639       272917      2.42%     81.67% # Bytes accessed per row activation (Byte)
system.mem_ctrl.dram.bytesPerActivate::640-767       356406      3.16%     84.83% # Bytes accessed per row activation (Byte)
system.mem_ctrl.dram.bytesPerActivate::768-895       155315      1.38%     86.21% # Bytes accessed per row activation (Byte)
system.mem_ctrl.dram.bytesPerActivate::896-1023        92606      0.82%     87.03% # Bytes accessed per row activation (Byte)
system.mem_ctrl.dram.bytesPerActivate::1024-1151      1462546     12.97%    100.00% # Bytes accessed per row activation (Byte)
system.mem_ctrl.dram.bytesPerActivate::total     11277515                       # Bytes accessed per row activation (Byte)
system.mem_ctrl.dram.dramBytesRead         3480686464                       # Total bytes read (Byte)
system.mem_ctrl.dram.dramBytesWritten        18653824                       # Total bytes written (Byte)
system.mem_ctrl.dram.avgRdBW               659.339775                       # Average DRAM read bandwidth in MiBytes/s ((Byte/Second))
system.mem_ctrl.dram.avgWrBW                 3.533558                       # Average DRAM write bandwidth in MiBytes/s ((Byte/Second))
system.mem_ctrl.dram.peakBW                  12800.00                       # Theoretical peak bandwidth in MiByte/s ((Byte/Second))
system.mem_ctrl.dram.busUtil                     5.18                       # Data bus utilization in percentage (Ratio)
system.mem_ctrl.dram.busUtilRead                 5.15                       # Data bus utilization in percentage for reads (Ratio)
system.mem_ctrl.dram.busUtilWrite                0.03                       # Data bus utilization in percentage for writes (Ratio)
system.mem_ctrl.dram.pageHitRate                79.37                       # Row buffer hit rate, read and write combined (Ratio)
system.mem_ctrl.dram.power_state.pwrStateResidencyTicks::UNDEFINED 5279048220495                       # Cumulative time (in ticks) in various power states (Tick)
system.mem_ctrl.dram.rank0.actEnergy      52590605340                       # Energy for activate commands per rank (pJ) (Joule)
system.mem_ctrl.dram.rank0.preEnergy      27952565850                       # Energy for precharge commands per rank (pJ) (Joule)
system.mem_ctrl.dram.rank0.readEnergy    244725606300                       # Energy for read commands per rank (pJ) (Joule)
system.mem_ctrl.dram.rank0.writeEnergy      964953540                       # Energy for write commands per rank (pJ) (Joule)
system.mem_ctrl.dram.rank0.refreshEnergy 416723461440.000061                       # Energy for refresh commands per rank (pJ) (Joule)
system.mem_ctrl.dram.rank0.actBackEnergy 2164596679950                       # Energy for active background per rank (pJ) (Joule)
system.mem_ctrl.dram.rank0.preBackEnergy 204336260160                       # Energy for precharge background per rank (pJ) (Joule)
system.mem_ctrl.dram.rank0.actPowerDownEnergy            0                       # Energy for active power-down per rank (pJ) (Joule)
system.mem_ctrl.dram.rank0.prePowerDownEnergy            0                       # Energy for precharge power-down per rank (pJ) (Joule)
system.mem_ctrl.dram.rank0.selfRefreshEnergy            0                       # Energy for self refresh per rank (pJ) (Joule)
system.mem_ctrl.dram.rank0.totalEnergy   3111890132580                       # Total energy per rank (pJ) (Joule)
system.mem_ctrl.dram.rank0.averagePower    589.479391                       # Core power per rank (mW) (Watt)
system.mem_ctrl.dram.rank0.totalIdleTime            0                       # Total Idle time Per DRAM Rank (Tick)
system.mem_ctrl.dram.rank0.pwrStateTime::IDLE 509127254544                       # Time in different power states (Tick)
system.mem_ctrl.dram.rank0.pwrStateTime::REF 176278960000                       # Time in different power states (Tick)
system.mem_ctrl.dram.rank0.pwrStateTime::SREF            0                       # Time in different power states (Tick)
system.mem_ctrl.dram.rank0.pwrStateTime::PRE_PDN            0                       # Time in different power states (Tick)
system.mem_ctrl.dram.rank0.pwrStateTime::ACT 4593642005951                       # Time in different power states (Tick)
system.mem_ctrl.dram.rank0.pwrStateTime::ACT_PDN            0                       # Time in different power states (Tick)
system.mem_ctrl.dram.rank1.actEnergy      27930866040                       # Energy for activate commands per rank (pJ) (Joule)
system.mem_ctrl.dram.rank1.preEnergy      14845603575                       # Energy for precharge commands per rank (pJ) (Joule)
system.mem_ctrl.dram.rank1.readEnergy    143588477340                       # Energy for read commands per rank (pJ) (Joule)
system.mem_ctrl.dram.rank1.writeEnergy      556498980                       # Energy for write commands per rank (pJ) (Joule)
system.mem_ctrl.dram.rank1.refreshEnergy 416723461440.000061                       # Energy for refresh commands per rank (pJ) (Joule)
system.mem_ctrl.dram.rank1.actBackEnergy 2142763772730                       # Energy for active background per rank (pJ) (Joule)
system.mem_ctrl.dram.rank1.preBackEnergy 222721866240                       # Energy for precharge background per rank (pJ) (Joule)
system.mem_ctrl.dram.rank1.actPowerDownEnergy            0                       # Energy for active power-down per rank (pJ) (Joule)
system.mem_ctrl.dram.rank1.prePowerDownEnergy            0                       # Energy for precharge power-down per rank (pJ) (Joule)
system.mem_ctrl.dram.rank1.selfRefreshEnergy            0                       # Energy for self refresh per rank (pJ) (Joule)
system.mem_ctrl.dram.rank1.totalEnergy   2969130546345                       # Total energy per rank (pJ) (Joule)
system.mem_ctrl.dram.rank1.averagePower    562.436716                       # Core power per rank (mW) (Watt)
system.mem_ctrl.dram.rank1.totalIdleTime            0                       # Total Idle time Per DRAM Rank (Tick)
system.mem_ctrl.dram.rank1.pwrStateTime::IDLE 556100444592                       # Time in different power states (Tick)
system.mem_ctrl.dram.rank1.pwrStateTime::REF 176278960000                       # Time in different power states (Tick)
system.mem_ctrl.dram.rank1.pwrStateTime::SREF            0                       # Time in different power states (Tick)
system.mem_ctrl.dram.rank1.pwrStateTime::PRE_PDN            0                       # Time in different power states (Tick)
system.mem_ctrl.dram.rank1.pwrStateTime::ACT 4546668815903                       # Time in different power states (Tick)
system.mem_ctrl.dram.rank1.pwrStateTime::ACT_PDN            0                       # Time in different power states (Tick)
system.mem_ctrl.power_state.pwrStateResidencyTicks::UNDEFINED 5279048220495                       # Cumulative time (in ticks) in various power states (Tick)
system.membus.transDist::ReadReq             56031802                       # Transaction distribution (Count)
system.membus.transDist::ReadResp            56031803                       # Transaction distribution (Count)
system.membus.transDist::WriteReq            27665921                       # Transaction distribution (Count)
system.membus.transDist::WriteResp           27665921                       # Transaction distribution (Count)
system.membus.transDist::LockedRMWReadReq        12276                       # Transaction distribution (Count)
system.membus.transDist::LockedRMWReadResp        12276                       # Transaction distribution (Count)
system.membus.transDist::LockedRMWWriteReq        12276                       # Transaction distribution (Count)
system.membus.transDist::LockedRMWWriteResp        12276                       # Transaction distribution (Count)
system.membus.pktCount_system.cpu.icache_port::system.mem_ctrl.port     42963074                       # Packet count per connected requestor and responder (Count)
system.membus.pktCount_system.cpu.icache_port::total     42963074                       # Packet count per connected requestor and responder (Count)
system.membus.pktCount_system.cpu.dcache_port::system.mem_ctrl.port    124481477                       # Packet count per connected requestor and responder (Count)
system.membus.pktCount_system.cpu.dcache_port::total    124481477                       # Packet count per connected requestor and responder (Count)
system.membus.pktCount::total               167444551                       # Packet count per connected requestor and responder (Count)
system.membus.pktSize_system.cpu.icache_port::system.mem_ctrl.port   1374818368                       # Cumulative packet size per connected requestor and responder (Byte)
system.membus.pktSize_system.cpu.icache_port::total   1374818368                       # Cumulative packet size per connected requestor and responder (Byte)
system.membus.pktSize_system.cpu.dcache_port::system.mem_ctrl.port    352813852                       # Cumulative packet size per connected requestor and responder (Byte)
system.membus.pktSize_system.cpu.dcache_port::total    352813852                       # Cumulative packet size per connected requestor and responder (Byte)
system.membus.pktSize::total               1727632220                       # Cumulative packet size per connected requestor and responder (Byte)
system.membus.snoops                                0                       # Total snoops (Count)
system.membus.snoopTraffic                          0                       # Total snoop traffic (Byte)
system.membus.snoopFanout::samples           83722275                       # Request fanout histogram (Count)
system.membus.snoopFanout::mean                     0                       # Request fanout histogram (Count)
system.membus.snoopFanout::stdev                    0                       # Request fanout histogram (Count)
system.membus.snoopFanout::underflows               0      0.00%      0.00% # Request fanout histogram (Count)
system.membus.snoopFanout::0                 83722275    100.00%    100.00% # Request fanout histogram (Count)
system.membus.snoopFanout::1                        0      0.00%    100.00% # Request fanout histogram (Count)
system.membus.snoopFanout::overflows                0      0.00%    100.00% # Request fanout histogram (Count)
system.membus.snoopFanout::min_value                0                       # Request fanout histogram (Count)
system.membus.snoopFanout::max_value                0                       # Request fanout histogram (Count)
system.membus.snoopFanout::total             83722275                       # Request fanout histogram (Count)
system.membus.power_state.pwrStateResidencyTicks::UNDEFINED 5279048220495                       # Cumulative time (in ticks) in various power states (Tick)
system.membus.reqLayer2.occupancy        1485302493176                       # Layer occupancy (ticks) (Tick)
system.membus.reqLayer2.utilization               0.3                       # Layer utilization (Ratio)
system.membus.respLayer1.occupancy       1466174788565                       # Layer occupancy (ticks) (Tick)
system.membus.respLayer1.utilization              0.3                       # Layer utilization (Ratio)
system.membus.respLayer2.occupancy       1396958741808                       # Layer occupancy (ticks) (Tick)
system.membus.respLayer2.utilization              0.3                       # Layer utilization (Ratio)
system.membus.snoop_filter.totRequests              0                       # Total number of requests made to the snoop filter. (Count)
system.membus.snoop_filter.hitSingleRequests            0                       # Number of requests hitting in the snoop filter with a single holder of the requested data. (Count)
system.membus.snoop_filter.hitMultiRequests            0                       # Number of requests hitting in the snoop filter with multiple (>1) holders of the requested data. (Count)
system.membus.snoop_filter.totSnoops                0                       # Total number of snoops made to the snoop filter. (Count)
system.membus.snoop_filter.hitSingleSnoops            0                       # Number of snoops hitting in the snoop filter with a single holder of the requested data. (Count)
system.membus.snoop_filter.hitMultiSnoops            0                       # Number of snoops hitting in the snoop filter with multiple (>1) holders of the requested data. (Count)
system.workload.inst.arm                            0                       # number of arm instructions executed (Count)
system.workload.inst.quiesce                        0                       # number of quiesce instructions executed (Count)

---------- End Simulation Statistics   ----------
