
---------- Begin Simulation Statistics ----------
simSeconds                                   5.618298                       # Number of seconds simulated (Second)
simTicks                                 5618298259032                       # Number of ticks simulated (Tick)
finalTick                                5618298259032                       # Number of ticks from beginning of simulation (restored from checkpoints and never reset) (Tick)
simFreq                                  1000000000000                       # The number of ticks per simulated second ((Tick/Second))
hostSeconds                                    970.66                       # Real time elapsed on the host (Second)
hostTickRate                               5788111799                       # The number of ticks simulated per host second (ticks/s) ((Tick/Second))
hostMemory                                    8661332                       # Number of bytes of host memory used (Byte)
simInsts                                    142557462                       # Number of instructions simulated (Count)
simOps                                      275333988                       # Number of ops (including micro ops) simulated (Count)
hostInstRate                                   146866                       # Simulator instruction rate (inst/s) ((Count/Second))
hostOpRate                                     283656                       # Simulator op (including micro ops) rate (op/s) ((Count/Second))
system.clk_domain.clock                         13333                       # Clock period in ticks (Tick)
system.clk_domain.voltage_domain.voltage            1                       # Voltage in Volts (Volt)
system.cpu.numCycles                        421382905                       # Number of cpu cycles simulated (Cycle)
system.cpu.cpi                               2.955881                       # CPI: cycles per instruction (core level) ((Cycle/Count))
system.cpu.ipc                               0.338309                       # IPC: instructions per cycle (core level) ((Count/Cycle))
system.cpu.numWorkItemsStarted                      0                       # Number of work items this cpu started (Count)
system.cpu.numWorkItemsCompleted                    0                       # Number of work items this cpu completed (Count)
system.cpu.instsAdded                       335564424                       # Number of instructions added to the IQ (excludes non-spec) (Count)
system.cpu.nonSpecInstsAdded                  2739059                       # Number of non-speculative instructions added to the IQ (Count)
system.cpu.instsIssued                      337561982                       # Number of instructions issued (Count)
system.cpu.squashedInstsIssued                 153515                       # Number of squashed instructions issued (Count)
system.cpu.squashedInstsExamined             62969482                       # Number of squashed instructions iterated over during squash; mainly for profiling (Count)
system.cpu.squashedOperandsExamined         136131989                       # Number of squashed operands that are examined and possibly removed from graph (Count)
system.cpu.squashedNonSpecRemoved             1084045                       # Number of squashed non-spec instructions that were removed (Count)
system.cpu.numIssuedDist::samples           418856014                       # Number of insts issued each cycle (Count)
system.cpu.numIssuedDist::mean               0.805914                       # Number of insts issued each cycle (Count)
system.cpu.numIssuedDist::stdev              1.513026                       # Number of insts issued each cycle (Count)
system.cpu.numIssuedDist::underflows                0      0.00%      0.00% # Number of insts issued each cycle (Count)
system.cpu.numIssuedDist::0                 287236825     68.58%     68.58% # Number of insts issued each cycle (Count)
system.cpu.numIssuedDist::1                  49270830     11.76%     80.34% # Number of insts issued each cycle (Count)
system.cpu.numIssuedDist::2                  28221279      6.74%     87.08% # Number of insts issued each cycle (Count)
system.cpu.numIssuedDist::3                  16594881      3.96%     91.04% # Number of insts issued each cycle (Count)
system.cpu.numIssuedDist::4                  18019766      4.30%     95.34% # Number of insts issued each cycle (Count)
system.cpu.numIssuedDist::5                   9815843      2.34%     97.68% # Number of insts issued each cycle (Count)
system.cpu.numIssuedDist::6                   7556408      1.80%     99.49% # Number of insts issued each cycle (Count)
system.cpu.numIssuedDist::7                   1554232      0.37%     99.86% # Number of insts issued each cycle (Count)
system.cpu.numIssuedDist::8                    585950      0.14%    100.00% # Number of insts issued each cycle (Count)
system.cpu.numIssuedDist::overflows                 0      0.00%    100.00% # Number of insts issued each cycle (Count)
system.cpu.numIssuedDist::min_value                 0                       # Number of insts issued each cycle (Count)
system.cpu.numIssuedDist::max_value                 8                       # Number of insts issued each cycle (Count)
system.cpu.numIssuedDist::total             418856014                       # Number of insts issued each cycle (Count)
system.cpu.statFuBusy::No_OpClass                   0      0.00%      0.00% # attempts to use FU when none available (Count)
system.cpu.statFuBusy::IntAlu                 1235550     17.15%     17.15% # attempts to use FU when none available (Count)
system.cpu.statFuBusy::IntMult                      0      0.00%     17.15% # attempts to use FU when none available (Count)
system.cpu.statFuBusy::IntDiv                       0      0.00%     17.15% # attempts to use FU when none available (Count)
system.cpu.statFuBusy::FloatAdd                     0      0.00%     17.15% # attempts to use FU when none available (Count)
system.cpu.statFuBusy::FloatCmp                     0      0.00%     17.15% # attempts to use FU when none available (Count)
system.cpu.statFuBusy::FloatCvt                     0      0.00%     17.15% # attempts to use FU when none available (Count)
system.cpu.statFuBusy::FloatMult                    0      0.00%     17.15% # attempts to use FU when none available (Count)
system.cpu.statFuBusy::FloatMultAcc                 0      0.00%     17.15% # attempts to use FU when none available (Count)
system.cpu.statFuBusy::FloatDiv                     0      0.00%     17.15% # attempts to use FU when none available (Count)
system.cpu.statFuBusy::FloatMisc                    0      0.00%     17.15% # attempts to use FU when none available (Count)
system.cpu.statFuBusy::FloatSqrt                    0      0.00%     17.15% # attempts to use FU when none available (Count)
system.cpu.statFuBusy::SimdAdd                     32      0.00%     17.15% # attempts to use FU when none available (Count)
system.cpu.statFuBusy::SimdAddAcc                   0      0.00%     17.15% # attempts to use FU when none available (Count)
system.cpu.statFuBusy::SimdAlu                  32867      0.46%     17.61% # attempts to use FU when none available (Count)
system.cpu.statFuBusy::SimdCmp                      0      0.00%     17.61% # attempts to use FU when none available (Count)
system.cpu.statFuBusy::SimdCvt                      4      0.00%     17.61% # attempts to use FU when none available (Count)
system.cpu.statFuBusy::SimdMisc                    16      0.00%     17.61% # attempts to use FU when none available (Count)
system.cpu.statFuBusy::SimdMult                     0      0.00%     17.61% # attempts to use FU when none available (Count)
system.cpu.statFuBusy::SimdMultAcc                  0      0.00%     17.61% # attempts to use FU when none available (Count)
system.cpu.statFuBusy::SimdMatMultAcc               0      0.00%     17.61% # attempts to use FU when none available (Count)
system.cpu.statFuBusy::SimdShift                    0      0.00%     17.61% # attempts to use FU when none available (Count)
system.cpu.statFuBusy::SimdShiftAcc                 0      0.00%     17.61% # attempts to use FU when none available (Count)
system.cpu.statFuBusy::SimdDiv                      0      0.00%     17.61% # attempts to use FU when none available (Count)
system.cpu.statFuBusy::SimdSqrt                     0      0.00%     17.61% # attempts to use FU when none available (Count)
system.cpu.statFuBusy::SimdFloatAdd                 0      0.00%     17.61% # attempts to use FU when none available (Count)
system.cpu.statFuBusy::SimdFloatAlu                 0      0.00%     17.61% # attempts to use FU when none available (Count)
system.cpu.statFuBusy::SimdFloatCmp                 0      0.00%     17.61% # attempts to use FU when none available (Count)
system.cpu.statFuBusy::SimdFloatCvt                 0      0.00%     17.61% # attempts to use FU when none available (Count)
system.cpu.statFuBusy::SimdFloatDiv                 0      0.00%     17.61% # attempts to use FU when none available (Count)
system.cpu.statFuBusy::SimdFloatMisc                0      0.00%     17.61% # attempts to use FU when none available (Count)
system.cpu.statFuBusy::SimdFloatMult                0      0.00%     17.61% # attempts to use FU when none available (Count)
system.cpu.statFuBusy::SimdFloatMultAcc             0      0.00%     17.61% # attempts to use FU when none available (Count)
system.cpu.statFuBusy::SimdFloatMatMultAcc            0      0.00%     17.61% # attempts to use FU when none available (Count)
system.cpu.statFuBusy::SimdFloatSqrt                0      0.00%     17.61% # attempts to use FU when none available (Count)
system.cpu.statFuBusy::SimdReduceAdd                0      0.00%     17.61% # attempts to use FU when none available (Count)
system.cpu.statFuBusy::SimdReduceAlu                0      0.00%     17.61% # attempts to use FU when none available (Count)
system.cpu.statFuBusy::SimdReduceCmp                0      0.00%     17.61% # attempts to use FU when none available (Count)
system.cpu.statFuBusy::SimdFloatReduceAdd            0      0.00%     17.61% # attempts to use FU when none available (Count)
system.cpu.statFuBusy::SimdFloatReduceCmp            0      0.00%     17.61% # attempts to use FU when none available (Count)
system.cpu.statFuBusy::SimdAes                      0      0.00%     17.61% # attempts to use FU when none available (Count)
system.cpu.statFuBusy::SimdAesMix                   0      0.00%     17.61% # attempts to use FU when none available (Count)
system.cpu.statFuBusy::SimdSha1Hash                 0      0.00%     17.61% # attempts to use FU when none available (Count)
system.cpu.statFuBusy::SimdSha1Hash2                0      0.00%     17.61% # attempts to use FU when none available (Count)
system.cpu.statFuBusy::SimdSha256Hash               0      0.00%     17.61% # attempts to use FU when none available (Count)
system.cpu.statFuBusy::SimdSha256Hash2              0      0.00%     17.61% # attempts to use FU when none available (Count)
system.cpu.statFuBusy::SimdShaSigma2                0      0.00%     17.61% # attempts to use FU when none available (Count)
system.cpu.statFuBusy::SimdShaSigma3                0      0.00%     17.61% # attempts to use FU when none available (Count)
system.cpu.statFuBusy::SimdPredAlu                  0      0.00%     17.61% # attempts to use FU when none available (Count)
system.cpu.statFuBusy::Matrix                       0      0.00%     17.61% # attempts to use FU when none available (Count)
system.cpu.statFuBusy::MatrixMov                    0      0.00%     17.61% # attempts to use FU when none available (Count)
system.cpu.statFuBusy::MatrixOP                     0      0.00%     17.61% # attempts to use FU when none available (Count)
system.cpu.statFuBusy::MemRead                3649025     50.65%     68.25% # attempts to use FU when none available (Count)
system.cpu.statFuBusy::MemWrite               1905183     26.44%     94.70% # attempts to use FU when none available (Count)
system.cpu.statFuBusy::FloatMemRead            379916      5.27%     99.97% # attempts to use FU when none available (Count)
system.cpu.statFuBusy::FloatMemWrite             2095      0.03%    100.00% # attempts to use FU when none available (Count)
system.cpu.statFuBusy::IprAccess                    0      0.00%    100.00% # attempts to use FU when none available (Count)
system.cpu.statFuBusy::InstPrefetch                 0      0.00%    100.00% # attempts to use FU when none available (Count)
system.cpu.statFuBusy::SimdUnitStrideLoad            0      0.00%    100.00% # attempts to use FU when none available (Count)
system.cpu.statFuBusy::SimdUnitStrideStore            0      0.00%    100.00% # attempts to use FU when none available (Count)
system.cpu.statFuBusy::SimdUnitStrideMaskLoad            0      0.00%    100.00% # attempts to use FU when none available (Count)
system.cpu.statFuBusy::SimdUnitStrideMaskStore            0      0.00%    100.00% # attempts to use FU when none available (Count)
system.cpu.statFuBusy::SimdStridedLoad              0      0.00%    100.00% # attempts to use FU when none available (Count)
system.cpu.statFuBusy::SimdStridedStore             0      0.00%    100.00% # attempts to use FU when none available (Count)
system.cpu.statFuBusy::SimdIndexedLoad              0      0.00%    100.00% # attempts to use FU when none available (Count)
system.cpu.statFuBusy::SimdIndexedStore             0      0.00%    100.00% # attempts to use FU when none available (Count)
system.cpu.statFuBusy::SimdWholeRegisterLoad            0      0.00%    100.00% # attempts to use FU when none available (Count)
system.cpu.statFuBusy::SimdWholeRegisterStore            0      0.00%    100.00% # attempts to use FU when none available (Count)
system.cpu.statFuBusy::SimdUnitStrideFaultOnlyFirstLoad            0      0.00%    100.00% # attempts to use FU when none available (Count)
system.cpu.statFuBusy::SimdUnitStrideSegmentedLoad            0      0.00%    100.00% # attempts to use FU when none available (Count)
system.cpu.statFuBusy::SimdUnitStrideSegmentedStore            0      0.00%    100.00% # attempts to use FU when none available (Count)
system.cpu.statFuBusy::SimdExt                      0      0.00%    100.00% # attempts to use FU when none available (Count)
system.cpu.statFuBusy::SimdFloatExt                 0      0.00%    100.00% # attempts to use FU when none available (Count)
system.cpu.statFuBusy::SimdConfig                   0      0.00%    100.00% # attempts to use FU when none available (Count)
system.cpu.statIssuedInstType_0::No_OpClass      2774954      0.82%      0.82% # Number of instructions issued per FU type, per thread (Count)
system.cpu.statIssuedInstType_0::IntAlu     236926556     70.19%     71.01% # Number of instructions issued per FU type, per thread (Count)
system.cpu.statIssuedInstType_0::IntMult       204927      0.06%     71.07% # Number of instructions issued per FU type, per thread (Count)
system.cpu.statIssuedInstType_0::IntDiv       1381970      0.41%     71.48% # Number of instructions issued per FU type, per thread (Count)
system.cpu.statIssuedInstType_0::FloatAdd      3429876      1.02%     72.50% # Number of instructions issued per FU type, per thread (Count)
system.cpu.statIssuedInstType_0::FloatCmp            0      0.00%     72.50% # Number of instructions issued per FU type, per thread (Count)
system.cpu.statIssuedInstType_0::FloatCvt         1696      0.00%     72.50% # Number of instructions issued per FU type, per thread (Count)
system.cpu.statIssuedInstType_0::FloatMult            0      0.00%     72.50% # Number of instructions issued per FU type, per thread (Count)
system.cpu.statIssuedInstType_0::FloatMultAcc            0      0.00%     72.50% # Number of instructions issued per FU type, per thread (Count)
system.cpu.statIssuedInstType_0::FloatDiv            0      0.00%     72.50% # Number of instructions issued per FU type, per thread (Count)
system.cpu.statIssuedInstType_0::FloatMisc            0      0.00%     72.50% # Number of instructions issued per FU type, per thread (Count)
system.cpu.statIssuedInstType_0::FloatSqrt            0      0.00%     72.50% # Number of instructions issued per FU type, per thread (Count)
system.cpu.statIssuedInstType_0::SimdAdd         7120      0.00%     72.50% # Number of instructions issued per FU type, per thread (Count)
system.cpu.statIssuedInstType_0::SimdAddAcc            0      0.00%     72.50% # Number of instructions issued per FU type, per thread (Count)
system.cpu.statIssuedInstType_0::SimdAlu       829075      0.25%     72.74% # Number of instructions issued per FU type, per thread (Count)
system.cpu.statIssuedInstType_0::SimdCmp           37      0.00%     72.74% # Number of instructions issued per FU type, per thread (Count)
system.cpu.statIssuedInstType_0::SimdCvt        80096      0.02%     72.77% # Number of instructions issued per FU type, per thread (Count)
system.cpu.statIssuedInstType_0::SimdMisc       372084      0.11%     72.88% # Number of instructions issued per FU type, per thread (Count)
system.cpu.statIssuedInstType_0::SimdMult            0      0.00%     72.88% # Number of instructions issued per FU type, per thread (Count)
system.cpu.statIssuedInstType_0::SimdMultAcc            0      0.00%     72.88% # Number of instructions issued per FU type, per thread (Count)
system.cpu.statIssuedInstType_0::SimdMatMultAcc            0      0.00%     72.88% # Number of instructions issued per FU type, per thread (Count)
system.cpu.statIssuedInstType_0::SimdShift         3402      0.00%     72.88% # Number of instructions issued per FU type, per thread (Count)
system.cpu.statIssuedInstType_0::SimdShiftAcc            0      0.00%     72.88% # Number of instructions issued per FU type, per thread (Count)
system.cpu.statIssuedInstType_0::SimdDiv            0      0.00%     72.88% # Number of instructions issued per FU type, per thread (Count)
system.cpu.statIssuedInstType_0::SimdSqrt            0      0.00%     72.88% # Number of instructions issued per FU type, per thread (Count)
system.cpu.statIssuedInstType_0::SimdFloatAdd        32778      0.01%     72.89% # Number of instructions issued per FU type, per thread (Count)
system.cpu.statIssuedInstType_0::SimdFloatAlu            0      0.00%     72.89% # Number of instructions issued per FU type, per thread (Count)
system.cpu.statIssuedInstType_0::SimdFloatCmp        22735      0.01%     72.90% # Number of instructions issued per FU type, per thread (Count)
system.cpu.statIssuedInstType_0::SimdFloatCvt      2079652      0.62%     73.51% # Number of instructions issued per FU type, per thread (Count)
system.cpu.statIssuedInstType_0::SimdFloatDiv            4      0.00%     73.51% # Number of instructions issued per FU type, per thread (Count)
system.cpu.statIssuedInstType_0::SimdFloatMisc            0      0.00%     73.51% # Number of instructions issued per FU type, per thread (Count)
system.cpu.statIssuedInstType_0::SimdFloatMult       249456      0.07%     73.59% # Number of instructions issued per FU type, per thread (Count)
system.cpu.statIssuedInstType_0::SimdFloatMultAcc            0      0.00%     73.59% # Number of instructions issued per FU type, per thread (Count)
system.cpu.statIssuedInstType_0::SimdFloatMatMultAcc            0      0.00%     73.59% # Number of instructions issued per FU type, per thread (Count)
system.cpu.statIssuedInstType_0::SimdFloatSqrt            4      0.00%     73.59% # Number of instructions issued per FU type, per thread (Count)
system.cpu.statIssuedInstType_0::SimdReduceAdd            0      0.00%     73.59% # Number of instructions issued per FU type, per thread (Count)
system.cpu.statIssuedInstType_0::SimdReduceAlu            0      0.00%     73.59% # Number of instructions issued per FU type, per thread (Count)
system.cpu.statIssuedInstType_0::SimdReduceCmp            0      0.00%     73.59% # Number of instructions issued per FU type, per thread (Count)
system.cpu.statIssuedInstType_0::SimdFloatReduceAdd            0      0.00%     73.59% # Number of instructions issued per FU type, per thread (Count)
system.cpu.statIssuedInstType_0::SimdFloatReduceCmp            0      0.00%     73.59% # Number of instructions issued per FU type, per thread (Count)
system.cpu.statIssuedInstType_0::SimdAes            0      0.00%     73.59% # Number of instructions issued per FU type, per thread (Count)
system.cpu.statIssuedInstType_0::SimdAesMix            0      0.00%     73.59% # Number of instructions issued per FU type, per thread (Count)
system.cpu.statIssuedInstType_0::SimdSha1Hash            0      0.00%     73.59% # Number of instructions issued per FU type, per thread (Count)
system.cpu.statIssuedInstType_0::SimdSha1Hash2            0      0.00%     73.59% # Number of instructions issued per FU type, per thread (Count)
system.cpu.statIssuedInstType_0::SimdSha256Hash            0      0.00%     73.59% # Number of instructions issued per FU type, per thread (Count)
system.cpu.statIssuedInstType_0::SimdSha256Hash2            0      0.00%     73.59% # Number of instructions issued per FU type, per thread (Count)
system.cpu.statIssuedInstType_0::SimdShaSigma2            0      0.00%     73.59% # Number of instructions issued per FU type, per thread (Count)
system.cpu.statIssuedInstType_0::SimdShaSigma3            0      0.00%     73.59% # Number of instructions issued per FU type, per thread (Count)
system.cpu.statIssuedInstType_0::SimdPredAlu            0      0.00%     73.59% # Number of instructions issued per FU type, per thread (Count)
system.cpu.statIssuedInstType_0::Matrix             0      0.00%     73.59% # Number of instructions issued per FU type, per thread (Count)
system.cpu.statIssuedInstType_0::MatrixMov            0      0.00%     73.59% # Number of instructions issued per FU type, per thread (Count)
system.cpu.statIssuedInstType_0::MatrixOP            0      0.00%     73.59% # Number of instructions issued per FU type, per thread (Count)
system.cpu.statIssuedInstType_0::MemRead     64508874     19.11%     92.70% # Number of instructions issued per FU type, per thread (Count)
system.cpu.statIssuedInstType_0::MemWrite     18356231      5.44%     98.13% # Number of instructions issued per FU type, per thread (Count)
system.cpu.statIssuedInstType_0::FloatMemRead      5382251      1.59%     99.73% # Number of instructions issued per FU type, per thread (Count)
system.cpu.statIssuedInstType_0::FloatMemWrite       918204      0.27%    100.00% # Number of instructions issued per FU type, per thread (Count)
system.cpu.statIssuedInstType_0::IprAccess            0      0.00%    100.00% # Number of instructions issued per FU type, per thread (Count)
system.cpu.statIssuedInstType_0::InstPrefetch            0      0.00%    100.00% # Number of instructions issued per FU type, per thread (Count)
system.cpu.statIssuedInstType_0::SimdUnitStrideLoad            0      0.00%    100.00% # Number of instructions issued per FU type, per thread (Count)
system.cpu.statIssuedInstType_0::SimdUnitStrideStore            0      0.00%    100.00% # Number of instructions issued per FU type, per thread (Count)
system.cpu.statIssuedInstType_0::SimdUnitStrideMaskLoad            0      0.00%    100.00% # Number of instructions issued per FU type, per thread (Count)
system.cpu.statIssuedInstType_0::SimdUnitStrideMaskStore            0      0.00%    100.00% # Number of instructions issued per FU type, per thread (Count)
system.cpu.statIssuedInstType_0::SimdStridedLoad            0      0.00%    100.00% # Number of instructions issued per FU type, per thread (Count)
system.cpu.statIssuedInstType_0::SimdStridedStore            0      0.00%    100.00% # Number of instructions issued per FU type, per thread (Count)
system.cpu.statIssuedInstType_0::SimdIndexedLoad            0      0.00%    100.00% # Number of instructions issued per FU type, per thread (Count)
system.cpu.statIssuedInstType_0::SimdIndexedStore            0      0.00%    100.00% # Number of instructions issued per FU type, per thread (Count)
system.cpu.statIssuedInstType_0::SimdWholeRegisterLoad            0      0.00%    100.00% # Number of instructions issued per FU type, per thread (Count)
system.cpu.statIssuedInstType_0::SimdWholeRegisterStore            0      0.00%    100.00% # Number of instructions issued per FU type, per thread (Count)
system.cpu.statIssuedInstType_0::SimdUnitStrideFaultOnlyFirstLoad            0      0.00%    100.00% # Number of instructions issued per FU type, per thread (Count)
system.cpu.statIssuedInstType_0::SimdUnitStrideSegmentedLoad            0      0.00%    100.00% # Number of instructions issued per FU type, per thread (Count)
system.cpu.statIssuedInstType_0::SimdUnitStrideSegmentedStore            0      0.00%    100.00% # Number of instructions issued per FU type, per thread (Count)
system.cpu.statIssuedInstType_0::SimdExt            0      0.00%    100.00% # Number of instructions issued per FU type, per thread (Count)
system.cpu.statIssuedInstType_0::SimdFloatExt            0      0.00%    100.00% # Number of instructions issued per FU type, per thread (Count)
system.cpu.statIssuedInstType_0::SimdConfig            0      0.00%    100.00% # Number of instructions issued per FU type, per thread (Count)
system.cpu.statIssuedInstType_0::total      337561982                       # Number of instructions issued per FU type, per thread (Count)
system.cpu.issueRate                         0.801081                       # Inst issue rate ((Count/Cycle))
system.cpu.fuBusy                             7204688                       # FU busy when requested (Count)
system.cpu.fuBusyRate                        0.021343                       # FU busy rate (busy events/executed inst) ((Count/Count))
system.cpu.intInstQueueReads               1073554432                       # Number of integer instruction queue reads (Count)
system.cpu.intInstQueueWrites               383001236                       # Number of integer instruction queue writes (Count)
system.cpu.intInstQueueWakeupAccesses       298382278                       # Number of integer instruction queue wakeup accesses (Count)
system.cpu.fpInstQueueReads                  27783749                       # Number of floating instruction queue reads (Count)
system.cpu.fpInstQueueWrites                 18621036                       # Number of floating instruction queue writes (Count)
system.cpu.fpInstQueueWakeupAccesses         11221986                       # Number of floating instruction queue wakeup accesses (Count)
system.cpu.vecInstQueueReads                        0                       # Number of vector instruction queue reads (Count)
system.cpu.vecInstQueueWrites                       0                       # Number of vector instruction queue writes (Count)
system.cpu.vecInstQueueWakeupAccesses               0                       # Number of vector instruction queue wakeup accesses (Count)
system.cpu.intAluAccesses                   327899610                       # Number of integer alu accesses (Count)
system.cpu.fpAluAccesses                     14092106                       # Number of floating point alu accesses (Count)
system.cpu.vecAluAccesses                           0                       # Number of vector alu accesses (Count)
system.cpu.numSquashedInsts                    982166                       # Number of squashed instructions skipped in execute (Count)
system.cpu.numSwp                                   0                       # Number of swp insts executed (Count)
system.cpu.timesIdled                          594893                       # Number of times that the entire CPU went into an idle state and unscheduled itself (Count)
system.cpu.idleCycles                         2526891                       # Total number of cycles that the CPU has spent unscheduled due to idling (Cycle)
system.cpu.MemDepUnit__0.insertedLoads       51059587                       # Number of loads inserted to the mem dependence unit. (Count)
system.cpu.MemDepUnit__0.insertedStores      22155517                       # Number of stores inserted to the mem dependence unit. (Count)
system.cpu.MemDepUnit__0.conflictingLoads     13421313                       # Number of conflicting loads. (Count)
system.cpu.MemDepUnit__0.conflictingStores      9060277                       # Number of conflicting stores. (Count)
system.cpu.MemDepUnit__1.insertedLoads              0                       # Number of loads inserted to the mem dependence unit. (Count)
system.cpu.MemDepUnit__1.insertedStores             0                       # Number of stores inserted to the mem dependence unit. (Count)
system.cpu.MemDepUnit__1.conflictingLoads            0                       # Number of conflicting loads. (Count)
system.cpu.MemDepUnit__1.conflictingStores            0                       # Number of conflicting stores. (Count)
system.cpu.MemDepUnit__2.insertedLoads              0                       # Number of loads inserted to the mem dependence unit. (Count)
system.cpu.MemDepUnit__2.insertedStores             0                       # Number of stores inserted to the mem dependence unit. (Count)
system.cpu.MemDepUnit__2.conflictingLoads            0                       # Number of conflicting loads. (Count)
system.cpu.MemDepUnit__2.conflictingStores            0                       # Number of conflicting stores. (Count)
system.cpu.MemDepUnit__3.insertedLoads              0                       # Number of loads inserted to the mem dependence unit. (Count)
system.cpu.MemDepUnit__3.insertedStores             0                       # Number of stores inserted to the mem dependence unit. (Count)
system.cpu.MemDepUnit__3.conflictingLoads            0                       # Number of conflicting loads. (Count)
system.cpu.MemDepUnit__3.conflictingStores            0                       # Number of conflicting stores. (Count)
system.cpu.branchPred.lookups_0::NoBranch         1833      0.00%      0.00% # Number of BP lookups (Count)
system.cpu.branchPred.lookups_0::Return       2897825      7.20%      7.20% # Number of BP lookups (Count)
system.cpu.branchPred.lookups_0::CallDirect      3123297      7.76%     14.96% # Number of BP lookups (Count)
system.cpu.branchPred.lookups_0::CallIndirect         1240      0.00%     14.97% # Number of BP lookups (Count)
system.cpu.branchPred.lookups_0::DirectCond     31593626     78.49%     93.46% # Number of BP lookups (Count)
system.cpu.branchPred.lookups_0::DirectUncond      2433981      6.05%     99.50% # Number of BP lookups (Count)
system.cpu.branchPred.lookups_0::IndirectCond            0      0.00%     99.50% # Number of BP lookups (Count)
system.cpu.branchPred.lookups_0::IndirectUncond       200046      0.50%    100.00% # Number of BP lookups (Count)
system.cpu.branchPred.lookups_0::total       40251848                       # Number of BP lookups (Count)
system.cpu.branchPred.squashes_0::NoBranch         1473      0.02%      0.02% # Number of branches that got squashed (completely removed) as an earlier branch was mispredicted. (Count)
system.cpu.branchPred.squashes_0::Return       485982      5.28%      5.30% # Number of branches that got squashed (completely removed) as an earlier branch was mispredicted. (Count)
system.cpu.branchPred.squashes_0::CallDirect       712084      7.74%     13.04% # Number of branches that got squashed (completely removed) as an earlier branch was mispredicted. (Count)
system.cpu.branchPred.squashes_0::CallIndirect          605      0.01%     13.05% # Number of branches that got squashed (completely removed) as an earlier branch was mispredicted. (Count)
system.cpu.branchPred.squashes_0::DirectCond      7780570     84.58%     97.62% # Number of branches that got squashed (completely removed) as an earlier branch was mispredicted. (Count)
system.cpu.branchPred.squashes_0::DirectUncond       210309      2.29%     99.91% # Number of branches that got squashed (completely removed) as an earlier branch was mispredicted. (Count)
system.cpu.branchPred.squashes_0::IndirectCond            0      0.00%     99.91% # Number of branches that got squashed (completely removed) as an earlier branch was mispredicted. (Count)
system.cpu.branchPred.squashes_0::IndirectUncond         8230      0.09%    100.00% # Number of branches that got squashed (completely removed) as an earlier branch was mispredicted. (Count)
system.cpu.branchPred.squashes_0::total       9199253                       # Number of branches that got squashed (completely removed) as an earlier branch was mispredicted. (Count)
system.cpu.branchPred.corrected_0::NoBranch          503      0.05%      0.05% # Number of branches that got corrected but not yet commited. Branches get corrected by decode or after execute. Also a branch misprediction can be detected out-of-order. Therefore, a corrected branch might not end up beeing committed in case an even earlier branch was mispredicted (Count)
system.cpu.branchPred.corrected_0::Return        41235      3.96%      4.01% # Number of branches that got corrected but not yet commited. Branches get corrected by decode or after execute. Also a branch misprediction can be detected out-of-order. Therefore, a corrected branch might not end up beeing committed in case an even earlier branch was mispredicted (Count)
system.cpu.branchPred.corrected_0::CallDirect         7622      0.73%      4.74% # Number of branches that got corrected but not yet commited. Branches get corrected by decode or after execute. Also a branch misprediction can be detected out-of-order. Therefore, a corrected branch might not end up beeing committed in case an even earlier branch was mispredicted (Count)
system.cpu.branchPred.corrected_0::CallIndirect          259      0.02%      4.76% # Number of branches that got corrected but not yet commited. Branches get corrected by decode or after execute. Also a branch misprediction can be detected out-of-order. Therefore, a corrected branch might not end up beeing committed in case an even earlier branch was mispredicted (Count)
system.cpu.branchPred.corrected_0::DirectCond       984012     94.44%     99.20% # Number of branches that got corrected but not yet commited. Branches get corrected by decode or after execute. Also a branch misprediction can be detected out-of-order. Therefore, a corrected branch might not end up beeing committed in case an even earlier branch was mispredicted (Count)
system.cpu.branchPred.corrected_0::DirectUncond         6866      0.66%     99.86% # Number of branches that got corrected but not yet commited. Branches get corrected by decode or after execute. Also a branch misprediction can be detected out-of-order. Therefore, a corrected branch might not end up beeing committed in case an even earlier branch was mispredicted (Count)
system.cpu.branchPred.corrected_0::IndirectCond            0      0.00%     99.86% # Number of branches that got corrected but not yet commited. Branches get corrected by decode or after execute. Also a branch misprediction can be detected out-of-order. Therefore, a corrected branch might not end up beeing committed in case an even earlier branch was mispredicted (Count)
system.cpu.branchPred.corrected_0::IndirectUncond         1482      0.14%    100.00% # Number of branches that got corrected but not yet commited. Branches get corrected by decode or after execute. Also a branch misprediction can be detected out-of-order. Therefore, a corrected branch might not end up beeing committed in case an even earlier branch was mispredicted (Count)
system.cpu.branchPred.corrected_0::total      1041979                       # Number of branches that got corrected but not yet commited. Branches get corrected by decode or after execute. Also a branch misprediction can be detected out-of-order. Therefore, a corrected branch might not end up beeing committed in case an even earlier branch was mispredicted (Count)
system.cpu.branchPred.earlyResteers_0::NoBranch            0                       # Number of branches that got redirected after decode. (Count)
system.cpu.branchPred.earlyResteers_0::Return            0                       # Number of branches that got redirected after decode. (Count)
system.cpu.branchPred.earlyResteers_0::CallDirect            0                       # Number of branches that got redirected after decode. (Count)
system.cpu.branchPred.earlyResteers_0::CallIndirect            0                       # Number of branches that got redirected after decode. (Count)
system.cpu.branchPred.earlyResteers_0::DirectCond            0                       # Number of branches that got redirected after decode. (Count)
system.cpu.branchPred.earlyResteers_0::DirectUncond            0                       # Number of branches that got redirected after decode. (Count)
system.cpu.branchPred.earlyResteers_0::IndirectCond            0                       # Number of branches that got redirected after decode. (Count)
system.cpu.branchPred.earlyResteers_0::IndirectUncond            0                       # Number of branches that got redirected after decode. (Count)
system.cpu.branchPred.earlyResteers_0::total            0                       # Number of branches that got redirected after decode. (Count)
system.cpu.branchPred.committed_0::NoBranch          360      0.00%      0.00% # Number of branches finally committed  (Count)
system.cpu.branchPred.committed_0::Return      2411842      7.77%      7.77% # Number of branches finally committed  (Count)
system.cpu.branchPred.committed_0::CallDirect      2411212      7.76%     15.53% # Number of branches finally committed  (Count)
system.cpu.branchPred.committed_0::CallIndirect          635      0.00%     15.54% # Number of branches finally committed  (Count)
system.cpu.branchPred.committed_0::DirectCond     23813056     76.69%     92.22% # Number of branches finally committed  (Count)
system.cpu.branchPred.committed_0::DirectUncond      2223672      7.16%     99.38% # Number of branches finally committed  (Count)
system.cpu.branchPred.committed_0::IndirectCond            0      0.00%     99.38% # Number of branches finally committed  (Count)
system.cpu.branchPred.committed_0::IndirectUncond       191816      0.62%    100.00% # Number of branches finally committed  (Count)
system.cpu.branchPred.committed_0::total     31052593                       # Number of branches finally committed  (Count)
system.cpu.branchPred.mispredicted_0::NoBranch          360      0.04%      0.04% # Number of committed branches that were mispredicted. (Count)
system.cpu.branchPred.mispredicted_0::Return        41229      4.05%      4.09% # Number of committed branches that were mispredicted. (Count)
system.cpu.branchPred.mispredicted_0::CallDirect         6967      0.69%      4.77% # Number of committed branches that were mispredicted. (Count)
system.cpu.branchPred.mispredicted_0::CallIndirect          245      0.02%      4.80% # Number of committed branches that were mispredicted. (Count)
system.cpu.branchPred.mispredicted_0::DirectCond       961815     94.57%     99.37% # Number of committed branches that were mispredicted. (Count)
system.cpu.branchPred.mispredicted_0::DirectUncond         4941      0.49%     99.86% # Number of committed branches that were mispredicted. (Count)
system.cpu.branchPred.mispredicted_0::IndirectCond            0      0.00%     99.86% # Number of committed branches that were mispredicted. (Count)
system.cpu.branchPred.mispredicted_0::IndirectUncond         1434      0.14%    100.00% # Number of committed branches that were mispredicted. (Count)
system.cpu.branchPred.mispredicted_0::total      1016991                       # Number of committed branches that were mispredicted. (Count)
system.cpu.branchPred.targetProvider_0::NoTarget     17812199     44.25%     44.25% # The component providing the target for taken branches (Count)
system.cpu.branchPred.targetProvider_0::BTB     19350079     48.07%     92.32% # The component providing the target for taken branches (Count)
system.cpu.branchPred.targetProvider_0::RAS      2897825      7.20%     99.52% # The component providing the target for taken branches (Count)
system.cpu.branchPred.targetProvider_0::Indirect       191745      0.48%    100.00% # The component providing the target for taken branches (Count)
system.cpu.branchPred.targetProvider_0::total     40251848                       # The component providing the target for taken branches (Count)
system.cpu.branchPred.targetWrong_0::NoBranch       531911     52.91%     52.91% # Number of branches where the target was incorrect or not available at prediction time. (Count)
system.cpu.branchPred.targetWrong_0::Return       431965     42.97%     95.88% # Number of branches where the target was incorrect or not available at prediction time. (Count)
system.cpu.branchPred.targetWrong_0::CallDirect        41235      4.10%     99.98% # Number of branches where the target was incorrect or not available at prediction time. (Count)
system.cpu.branchPred.targetWrong_0::CallIndirect          165      0.02%    100.00% # Number of branches where the target was incorrect or not available at prediction time. (Count)
system.cpu.branchPred.targetWrong_0::DirectCond            0      0.00%    100.00% # Number of branches where the target was incorrect or not available at prediction time. (Count)
system.cpu.branchPred.targetWrong_0::DirectUncond            0      0.00%    100.00% # Number of branches where the target was incorrect or not available at prediction time. (Count)
system.cpu.branchPred.targetWrong_0::IndirectCond            0      0.00%    100.00% # Number of branches where the target was incorrect or not available at prediction time. (Count)
system.cpu.branchPred.targetWrong_0::IndirectUncond            0      0.00%    100.00% # Number of branches where the target was incorrect or not available at prediction time. (Count)
system.cpu.branchPred.targetWrong_0::total      1005276                       # Number of branches where the target was incorrect or not available at prediction time. (Count)
system.cpu.branchPred.condPredicted          31595459                       # Number of conditional branches predicted (Count)
system.cpu.branchPred.condPredictedTaken     13824096                       # Number of conditional branches predicted as taken (Count)
system.cpu.branchPred.condIncorrect           1041979                       # Number of conditional branches incorrect (Count)
system.cpu.branchPred.predTakenBTBMiss          14981                       # Number of branches predicted taken but missed in BTB (Count)
system.cpu.branchPred.NotTakenMispredicted       575969                       # Number branches predicted 'not taken' but turned out to be taken (Count)
system.cpu.branchPred.TakenMispredicted        466010                       # Number branches predicted taken but are actually not taken (Count)
system.cpu.branchPred.BTBLookups             40251848                       # Number of BTB lookups (Count)
system.cpu.branchPred.BTBUpdates               532490                       # Number of BTB updates (Count)
system.cpu.branchPred.BTBHits                29167632                       # Number of BTB hits (Count)
system.cpu.branchPred.BTBHitRatio            0.724628                       # BTB Hit Ratio (Ratio)
system.cpu.branchPred.BTBMispredicted           16200                       # Number BTB mispredictions. No target found or target wrong (Count)
system.cpu.branchPred.indirectLookups          201286                       # Number of indirect predictor lookups. (Count)
system.cpu.branchPred.indirectHits             191745                       # Number of indirect target hits. (Count)
system.cpu.branchPred.indirectMisses             9541                       # Number of indirect misses. (Count)
system.cpu.branchPred.indirectMispredicted            0                       # Number of mispredicted indirect branches. (Count)
system.cpu.branchPred.btb.lookups::NoBranch         1833      0.00%      0.00% # Number of BTB lookups (Count)
system.cpu.branchPred.btb.lookups::Return      2897825      7.20%      7.20% # Number of BTB lookups (Count)
system.cpu.branchPred.btb.lookups::CallDirect      3123297      7.76%     14.96% # Number of BTB lookups (Count)
system.cpu.branchPred.btb.lookups::CallIndirect         1240      0.00%     14.97% # Number of BTB lookups (Count)
system.cpu.branchPred.btb.lookups::DirectCond     31593626     78.49%     93.46% # Number of BTB lookups (Count)
system.cpu.branchPred.btb.lookups::DirectUncond      2433981      6.05%     99.50% # Number of BTB lookups (Count)
system.cpu.branchPred.btb.lookups::IndirectCond            0      0.00%     99.50% # Number of BTB lookups (Count)
system.cpu.branchPred.btb.lookups::IndirectUncond       200046      0.50%    100.00% # Number of BTB lookups (Count)
system.cpu.branchPred.btb.lookups::total     40251848                       # Number of BTB lookups (Count)
system.cpu.branchPred.btb.misses::NoBranch          292      0.00%      0.00% # Number of BTB misses (Count)
system.cpu.branchPred.btb.misses::Return      2872186     25.91%     25.92% # Number of BTB misses (Count)
system.cpu.branchPred.btb.misses::CallDirect        14062      0.13%     26.04% # Number of BTB misses (Count)
system.cpu.branchPred.btb.misses::CallIndirect         1239      0.01%     26.05% # Number of BTB misses (Count)
system.cpu.branchPred.btb.misses::DirectCond      7989182     72.08%     98.13% # Number of BTB misses (Count)
system.cpu.branchPred.btb.misses::DirectUncond         7209      0.07%     98.20% # Number of BTB misses (Count)
system.cpu.branchPred.btb.misses::IndirectCond            0      0.00%     98.20% # Number of BTB misses (Count)
system.cpu.branchPred.btb.misses::IndirectUncond       200046      1.80%    100.00% # Number of BTB misses (Count)
system.cpu.branchPred.btb.misses::total      11084216                       # Number of BTB misses (Count)
system.cpu.branchPred.btb.updates::NoBranch            0      0.00%      0.00% # Number of BTB updates (Count)
system.cpu.branchPred.btb.updates::Return            0      0.00%      0.00% # Number of BTB updates (Count)
system.cpu.branchPred.btb.updates::CallDirect         7622      1.43%      1.43% # Number of BTB updates (Count)
system.cpu.branchPred.btb.updates::CallIndirect            0      0.00%      1.43% # Number of BTB updates (Count)
system.cpu.branchPred.btb.updates::DirectCond       518002     97.28%     98.71% # Number of BTB updates (Count)
system.cpu.branchPred.btb.updates::DirectUncond         6866      1.29%    100.00% # Number of BTB updates (Count)
system.cpu.branchPred.btb.updates::IndirectCond            0      0.00%    100.00% # Number of BTB updates (Count)
system.cpu.branchPred.btb.updates::IndirectUncond            0      0.00%    100.00% # Number of BTB updates (Count)
system.cpu.branchPred.btb.updates::total       532490                       # Number of BTB updates (Count)
system.cpu.branchPred.btb.mispredict::NoBranch            0      0.00%      0.00% # Number of BTB mispredictions. No target found or target wrong. (Count)
system.cpu.branchPred.btb.mispredict::Return            0      0.00%      0.00% # Number of BTB mispredictions. No target found or target wrong. (Count)
system.cpu.branchPred.btb.mispredict::CallDirect         7622      1.43%      1.43% # Number of BTB mispredictions. No target found or target wrong. (Count)
system.cpu.branchPred.btb.mispredict::CallIndirect            0      0.00%      1.43% # Number of BTB mispredictions. No target found or target wrong. (Count)
system.cpu.branchPred.btb.mispredict::DirectCond       518002     97.28%     98.71% # Number of BTB mispredictions. No target found or target wrong. (Count)
system.cpu.branchPred.btb.mispredict::DirectUncond         6866      1.29%    100.00% # Number of BTB mispredictions. No target found or target wrong. (Count)
system.cpu.branchPred.btb.mispredict::IndirectCond            0      0.00%    100.00% # Number of BTB mispredictions. No target found or target wrong. (Count)
system.cpu.branchPred.btb.mispredict::IndirectUncond            0      0.00%    100.00% # Number of BTB mispredictions. No target found or target wrong. (Count)
system.cpu.branchPred.btb.mispredict::total       532490                       # Number of BTB mispredictions. No target found or target wrong. (Count)
system.cpu.branchPred.btb.power_state.pwrStateResidencyTicks::UNDEFINED 5618298259032                       # Cumulative time (in ticks) in various power states (Tick)
system.cpu.branchPred.indirectBranchPred.lookups       201286                       # Number of lookups (Count)
system.cpu.branchPred.indirectBranchPred.hits       191745                       # Number of hits of a tag (Count)
system.cpu.branchPred.indirectBranchPred.misses         9541                       # Number of misses (Count)
system.cpu.branchPred.indirectBranchPred.targetRecords         1741                       # Number of targets that where recorded/installed in the cache (Count)
system.cpu.branchPred.indirectBranchPred.indirectRecords       203027                       # Number of indirect branches/calls recorded in the indirect hist (Count)
system.cpu.branchPred.indirectBranchPred.speculativeOverflows            0                       # Number of times more than the allowed capacity for speculative branches/calls where in flight and destroy the path history (Count)
system.cpu.branchPred.ras.pushes              3610519                       # Number of times a PC was pushed onto the RAS (Count)
system.cpu.branchPred.ras.pops                3610514                       # Number of times a PC was poped from the RAS (Count)
system.cpu.branchPred.ras.squashes            1198671                       # Number of times the stack operation was squashed due to wrong speculation. (Count)
system.cpu.branchPred.ras.used                2411842                       # Number of times the RAS is the provider (Count)
system.cpu.branchPred.ras.correct             2370613                       # Number of times the RAS is the provider and the prediction is correct (Count)
system.cpu.branchPred.ras.incorrect             41229                       # Number of times the RAS is the provider and the prediction is wrong (Count)
system.cpu.commit.commitSquashedInsts        62958656                       # The number of squashed insts skipped by commit (Count)
system.cpu.commit.commitNonSpecStalls         1655014                       # The number of times commit has been forced to stall to communicate backwards (Count)
system.cpu.commit.branchMispredicts           1028677                       # The number of times a branch was mispredicted (Count)
system.cpu.commit.numCommittedDist::samples    409562321                       # Number of insts commited each cycle (Count)
system.cpu.commit.numCommittedDist::mean     0.672264                       # Number of insts commited each cycle (Count)
system.cpu.commit.numCommittedDist::stdev     1.734995                       # Number of insts commited each cycle (Count)
system.cpu.commit.numCommittedDist::underflows            0      0.00%      0.00% # Number of insts commited each cycle (Count)
system.cpu.commit.numCommittedDist::0       324641739     79.27%     79.27% # Number of insts commited each cycle (Count)
system.cpu.commit.numCommittedDist::1        29653837      7.24%     86.51% # Number of insts commited each cycle (Count)
system.cpu.commit.numCommittedDist::2        13613798      3.32%     89.83% # Number of insts commited each cycle (Count)
system.cpu.commit.numCommittedDist::3        14659148      3.58%     93.41% # Number of insts commited each cycle (Count)
system.cpu.commit.numCommittedDist::4         5428914      1.33%     94.73% # Number of insts commited each cycle (Count)
system.cpu.commit.numCommittedDist::5         4551167      1.11%     95.85% # Number of insts commited each cycle (Count)
system.cpu.commit.numCommittedDist::6         1997810      0.49%     96.33% # Number of insts commited each cycle (Count)
system.cpu.commit.numCommittedDist::7         2110504      0.52%     96.85% # Number of insts commited each cycle (Count)
system.cpu.commit.numCommittedDist::8        12905404      3.15%    100.00% # Number of insts commited each cycle (Count)
system.cpu.commit.numCommittedDist::overflows            0      0.00%    100.00% # Number of insts commited each cycle (Count)
system.cpu.commit.numCommittedDist::min_value            0                       # Number of insts commited each cycle (Count)
system.cpu.commit.numCommittedDist::max_value            8                       # Number of insts commited each cycle (Count)
system.cpu.commit.numCommittedDist::total    409562321                       # Number of insts commited each cycle (Count)
system.cpu.commit.amos                              0                       # Number of atomic instructions committed (Count)
system.cpu.commit.membars                     1102618                       # Number of memory barriers committed (Count)
system.cpu.commit.functionCalls               2411847                       # Number of function calls committed. (Count)
system.cpu.commit.committedInstType_0::No_OpClass      2346449      0.85%      0.85% # Class of committed instruction (Count)
system.cpu.commit.committedInstType_0::IntAlu    206898157     75.14%     76.00% # Class of committed instruction (Count)
system.cpu.commit.committedInstType_0::IntMult       203888      0.07%     76.07% # Class of committed instruction (Count)
system.cpu.commit.committedInstType_0::IntDiv      1277033      0.46%     76.53% # Class of committed instruction (Count)
system.cpu.commit.committedInstType_0::FloatAdd      2105857      0.76%     77.30% # Class of committed instruction (Count)
system.cpu.commit.committedInstType_0::FloatCmp            0      0.00%     77.30% # Class of committed instruction (Count)
system.cpu.commit.committedInstType_0::FloatCvt         1696      0.00%     77.30% # Class of committed instruction (Count)
system.cpu.commit.committedInstType_0::FloatMult            0      0.00%     77.30% # Class of committed instruction (Count)
system.cpu.commit.committedInstType_0::FloatMultAcc            0      0.00%     77.30% # Class of committed instruction (Count)
system.cpu.commit.committedInstType_0::FloatDiv            0      0.00%     77.30% # Class of committed instruction (Count)
system.cpu.commit.committedInstType_0::FloatMisc            0      0.00%     77.30% # Class of committed instruction (Count)
system.cpu.commit.committedInstType_0::FloatSqrt            0      0.00%     77.30% # Class of committed instruction (Count)
system.cpu.commit.committedInstType_0::SimdAdd         7086      0.00%     77.30% # Class of committed instruction (Count)
system.cpu.commit.committedInstType_0::SimdAddAcc            0      0.00%     77.30% # Class of committed instruction (Count)
system.cpu.commit.committedInstType_0::SimdAlu       787158      0.29%     77.59% # Class of committed instruction (Count)
system.cpu.commit.committedInstType_0::SimdCmp           36      0.00%     77.59% # Class of committed instruction (Count)
system.cpu.commit.committedInstType_0::SimdCvt        79850      0.03%     77.62% # Class of committed instruction (Count)
system.cpu.commit.committedInstType_0::SimdMisc       371360      0.13%     77.75% # Class of committed instruction (Count)
system.cpu.commit.committedInstType_0::SimdMult            0      0.00%     77.75% # Class of committed instruction (Count)
system.cpu.commit.committedInstType_0::SimdMultAcc            0      0.00%     77.75% # Class of committed instruction (Count)
system.cpu.commit.committedInstType_0::SimdMatMultAcc            0      0.00%     77.75% # Class of committed instruction (Count)
system.cpu.commit.committedInstType_0::SimdShift         2286      0.00%     77.75% # Class of committed instruction (Count)
system.cpu.commit.committedInstType_0::SimdShiftAcc            0      0.00%     77.75% # Class of committed instruction (Count)
system.cpu.commit.committedInstType_0::SimdDiv            0      0.00%     77.75% # Class of committed instruction (Count)
system.cpu.commit.committedInstType_0::SimdSqrt            0      0.00%     77.75% # Class of committed instruction (Count)
system.cpu.commit.committedInstType_0::SimdFloatAdd        32776      0.01%     77.77% # Class of committed instruction (Count)
system.cpu.commit.committedInstType_0::SimdFloatAlu            0      0.00%     77.77% # Class of committed instruction (Count)
system.cpu.commit.committedInstType_0::SimdFloatCmp        21844      0.01%     77.77% # Class of committed instruction (Count)
system.cpu.commit.committedInstType_0::SimdFloatCvt      1919346      0.70%     78.47% # Class of committed instruction (Count)
system.cpu.commit.committedInstType_0::SimdFloatDiv            4      0.00%     78.47% # Class of committed instruction (Count)
system.cpu.commit.committedInstType_0::SimdFloatMisc            0      0.00%     78.47% # Class of committed instruction (Count)
system.cpu.commit.committedInstType_0::SimdFloatMult       248390      0.09%     78.56% # Class of committed instruction (Count)
system.cpu.commit.committedInstType_0::SimdFloatMultAcc            0      0.00%     78.56% # Class of committed instruction (Count)
system.cpu.commit.committedInstType_0::SimdFloatMatMultAcc            0      0.00%     78.56% # Class of committed instruction (Count)
system.cpu.commit.committedInstType_0::SimdFloatSqrt            4      0.00%     78.56% # Class of committed instruction (Count)
system.cpu.commit.committedInstType_0::SimdReduceAdd            0      0.00%     78.56% # Class of committed instruction (Count)
system.cpu.commit.committedInstType_0::SimdReduceAlu            0      0.00%     78.56% # Class of committed instruction (Count)
system.cpu.commit.committedInstType_0::SimdReduceCmp            0      0.00%     78.56% # Class of committed instruction (Count)
system.cpu.commit.committedInstType_0::SimdFloatReduceAdd            0      0.00%     78.56% # Class of committed instruction (Count)
system.cpu.commit.committedInstType_0::SimdFloatReduceCmp            0      0.00%     78.56% # Class of committed instruction (Count)
system.cpu.commit.committedInstType_0::SimdAes            0      0.00%     78.56% # Class of committed instruction (Count)
system.cpu.commit.committedInstType_0::SimdAesMix            0      0.00%     78.56% # Class of committed instruction (Count)
system.cpu.commit.committedInstType_0::SimdSha1Hash            0      0.00%     78.56% # Class of committed instruction (Count)
system.cpu.commit.committedInstType_0::SimdSha1Hash2            0      0.00%     78.56% # Class of committed instruction (Count)
system.cpu.commit.committedInstType_0::SimdSha256Hash            0      0.00%     78.56% # Class of committed instruction (Count)
system.cpu.commit.committedInstType_0::SimdSha256Hash2            0      0.00%     78.56% # Class of committed instruction (Count)
system.cpu.commit.committedInstType_0::SimdShaSigma2            0      0.00%     78.56% # Class of committed instruction (Count)
system.cpu.commit.committedInstType_0::SimdShaSigma3            0      0.00%     78.56% # Class of committed instruction (Count)
system.cpu.commit.committedInstType_0::SimdPredAlu            0      0.00%     78.56% # Class of committed instruction (Count)
system.cpu.commit.committedInstType_0::Matrix            0      0.00%     78.56% # Class of committed instruction (Count)
system.cpu.commit.committedInstType_0::MatrixMov            0      0.00%     78.56% # Class of committed instruction (Count)
system.cpu.commit.committedInstType_0::MatrixOP            0      0.00%     78.56% # Class of committed instruction (Count)
system.cpu.commit.committedInstType_0::MemRead     38357476     13.93%     92.49% # Class of committed instruction (Count)
system.cpu.commit.committedInstType_0::MemWrite     17018482      6.18%     98.67% # Class of committed instruction (Count)
system.cpu.commit.committedInstType_0::FloatMemRead      2802805      1.02%     99.69% # Class of committed instruction (Count)
system.cpu.commit.committedInstType_0::FloatMemWrite       852005      0.31%    100.00% # Class of committed instruction (Count)
system.cpu.commit.committedInstType_0::IprAccess            0      0.00%    100.00% # Class of committed instruction (Count)
system.cpu.commit.committedInstType_0::InstPrefetch            0      0.00%    100.00% # Class of committed instruction (Count)
system.cpu.commit.committedInstType_0::SimdUnitStrideLoad            0      0.00%    100.00% # Class of committed instruction (Count)
system.cpu.commit.committedInstType_0::SimdUnitStrideStore            0      0.00%    100.00% # Class of committed instruction (Count)
system.cpu.commit.committedInstType_0::SimdUnitStrideMaskLoad            0      0.00%    100.00% # Class of committed instruction (Count)
system.cpu.commit.committedInstType_0::SimdUnitStrideMaskStore            0      0.00%    100.00% # Class of committed instruction (Count)
system.cpu.commit.committedInstType_0::SimdStridedLoad            0      0.00%    100.00% # Class of committed instruction (Count)
system.cpu.commit.committedInstType_0::SimdStridedStore            0      0.00%    100.00% # Class of committed instruction (Count)
system.cpu.commit.committedInstType_0::SimdIndexedLoad            0      0.00%    100.00% # Class of committed instruction (Count)
system.cpu.commit.committedInstType_0::SimdIndexedStore            0      0.00%    100.00% # Class of committed instruction (Count)
system.cpu.commit.committedInstType_0::SimdWholeRegisterLoad            0      0.00%    100.00% # Class of committed instruction (Count)
system.cpu.commit.committedInstType_0::SimdWholeRegisterStore            0      0.00%    100.00% # Class of committed instruction (Count)
system.cpu.commit.committedInstType_0::SimdUnitStrideFaultOnlyFirstLoad            0      0.00%    100.00% # Class of committed instruction (Count)
system.cpu.commit.committedInstType_0::SimdUnitStrideSegmentedLoad            0      0.00%    100.00% # Class of committed instruction (Count)
system.cpu.commit.committedInstType_0::SimdUnitStrideSegmentedStore            0      0.00%    100.00% # Class of committed instruction (Count)
system.cpu.commit.committedInstType_0::SimdExt            0      0.00%    100.00% # Class of committed instruction (Count)
system.cpu.commit.committedInstType_0::SimdFloatExt            0      0.00%    100.00% # Class of committed instruction (Count)
system.cpu.commit.committedInstType_0::SimdConfig            0      0.00%    100.00% # Class of committed instruction (Count)
system.cpu.commit.committedInstType_0::total    275333988                       # Class of committed instruction (Count)
system.cpu.commit.commitEligibleSamples      12905404                       # number cycles where commit BW limit reached (Cycle)
system.cpu.commitStats0.numInsts            142557462                       # Number of instructions committed (thread level) (Count)
system.cpu.commitStats0.numOps              275333988                       # Number of ops (including micro ops) committed (thread level) (Count)
system.cpu.commitStats0.numInstsNotNOP      142557462                       # Number of instructions committed excluding NOPs or prefetches (Count)
system.cpu.commitStats0.numOpsNotNOP        275333988                       # Number of Ops (including micro ops) Simulated (Count)
system.cpu.commitStats0.cpi                  2.955881                       # CPI: cycles per instruction (thread level) ((Cycle/Count))
system.cpu.commitStats0.ipc                  0.338309                       # IPC: instructions per cycle (thread level) ((Count/Cycle))
system.cpu.commitStats0.numMemRefs           59030768                       # Number of memory references committed (Count)
system.cpu.commitStats0.numFpInsts            9493464                       # Number of float instructions (Count)
system.cpu.commitStats0.numIntInsts         266021528                       # Number of integer instructions (Count)
system.cpu.commitStats0.numLoadInsts         41160281                       # Number of load instructions (Count)
system.cpu.commitStats0.numStoreInsts        17870487                       # Number of store instructions (Count)
system.cpu.commitStats0.numVecInsts                 0                       # Number of vector instructions (Count)
system.cpu.commitStats0.committedInstType::No_OpClass      2346449      0.85%      0.85% # Class of committed instruction. (Count)
system.cpu.commitStats0.committedInstType::IntAlu    206898157     75.14%     76.00% # Class of committed instruction. (Count)
system.cpu.commitStats0.committedInstType::IntMult       203888      0.07%     76.07% # Class of committed instruction. (Count)
system.cpu.commitStats0.committedInstType::IntDiv      1277033      0.46%     76.53% # Class of committed instruction. (Count)
system.cpu.commitStats0.committedInstType::FloatAdd      2105857      0.76%     77.30% # Class of committed instruction. (Count)
system.cpu.commitStats0.committedInstType::FloatCmp            0      0.00%     77.30% # Class of committed instruction. (Count)
system.cpu.commitStats0.committedInstType::FloatCvt         1696      0.00%     77.30% # Class of committed instruction. (Count)
system.cpu.commitStats0.committedInstType::FloatMult            0      0.00%     77.30% # Class of committed instruction. (Count)
system.cpu.commitStats0.committedInstType::FloatMultAcc            0      0.00%     77.30% # Class of committed instruction. (Count)
system.cpu.commitStats0.committedInstType::FloatDiv            0      0.00%     77.30% # Class of committed instruction. (Count)
system.cpu.commitStats0.committedInstType::FloatMisc            0      0.00%     77.30% # Class of committed instruction. (Count)
system.cpu.commitStats0.committedInstType::FloatSqrt            0      0.00%     77.30% # Class of committed instruction. (Count)
system.cpu.commitStats0.committedInstType::SimdAdd         7086      0.00%     77.30% # Class of committed instruction. (Count)
system.cpu.commitStats0.committedInstType::SimdAddAcc            0      0.00%     77.30% # Class of committed instruction. (Count)
system.cpu.commitStats0.committedInstType::SimdAlu       787158      0.29%     77.59% # Class of committed instruction. (Count)
system.cpu.commitStats0.committedInstType::SimdCmp           36      0.00%     77.59% # Class of committed instruction. (Count)
system.cpu.commitStats0.committedInstType::SimdCvt        79850      0.03%     77.62% # Class of committed instruction. (Count)
system.cpu.commitStats0.committedInstType::SimdMisc       371360      0.13%     77.75% # Class of committed instruction. (Count)
system.cpu.commitStats0.committedInstType::SimdMult            0      0.00%     77.75% # Class of committed instruction. (Count)
system.cpu.commitStats0.committedInstType::SimdMultAcc            0      0.00%     77.75% # Class of committed instruction. (Count)
system.cpu.commitStats0.committedInstType::SimdMatMultAcc            0      0.00%     77.75% # Class of committed instruction. (Count)
system.cpu.commitStats0.committedInstType::SimdShift         2286      0.00%     77.75% # Class of committed instruction. (Count)
system.cpu.commitStats0.committedInstType::SimdShiftAcc            0      0.00%     77.75% # Class of committed instruction. (Count)
system.cpu.commitStats0.committedInstType::SimdDiv            0      0.00%     77.75% # Class of committed instruction. (Count)
system.cpu.commitStats0.committedInstType::SimdSqrt            0      0.00%     77.75% # Class of committed instruction. (Count)
system.cpu.commitStats0.committedInstType::SimdFloatAdd        32776      0.01%     77.77% # Class of committed instruction. (Count)
system.cpu.commitStats0.committedInstType::SimdFloatAlu            0      0.00%     77.77% # Class of committed instruction. (Count)
system.cpu.commitStats0.committedInstType::SimdFloatCmp        21844      0.01%     77.77% # Class of committed instruction. (Count)
system.cpu.commitStats0.committedInstType::SimdFloatCvt      1919346      0.70%     78.47% # Class of committed instruction. (Count)
system.cpu.commitStats0.committedInstType::SimdFloatDiv            4      0.00%     78.47% # Class of committed instruction. (Count)
system.cpu.commitStats0.committedInstType::SimdFloatMisc            0      0.00%     78.47% # Class of committed instruction. (Count)
system.cpu.commitStats0.committedInstType::SimdFloatMult       248390      0.09%     78.56% # Class of committed instruction. (Count)
system.cpu.commitStats0.committedInstType::SimdFloatMultAcc            0      0.00%     78.56% # Class of committed instruction. (Count)
system.cpu.commitStats0.committedInstType::SimdFloatMatMultAcc            0      0.00%     78.56% # Class of committed instruction. (Count)
system.cpu.commitStats0.committedInstType::SimdFloatSqrt            4      0.00%     78.56% # Class of committed instruction. (Count)
system.cpu.commitStats0.committedInstType::SimdReduceAdd            0      0.00%     78.56% # Class of committed instruction. (Count)
system.cpu.commitStats0.committedInstType::SimdReduceAlu            0      0.00%     78.56% # Class of committed instruction. (Count)
system.cpu.commitStats0.committedInstType::SimdReduceCmp            0      0.00%     78.56% # Class of committed instruction. (Count)
system.cpu.commitStats0.committedInstType::SimdFloatReduceAdd            0      0.00%     78.56% # Class of committed instruction. (Count)
system.cpu.commitStats0.committedInstType::SimdFloatReduceCmp            0      0.00%     78.56% # Class of committed instruction. (Count)
system.cpu.commitStats0.committedInstType::SimdAes            0      0.00%     78.56% # Class of committed instruction. (Count)
system.cpu.commitStats0.committedInstType::SimdAesMix            0      0.00%     78.56% # Class of committed instruction. (Count)
system.cpu.commitStats0.committedInstType::SimdSha1Hash            0      0.00%     78.56% # Class of committed instruction. (Count)
system.cpu.commitStats0.committedInstType::SimdSha1Hash2            0      0.00%     78.56% # Class of committed instruction. (Count)
system.cpu.commitStats0.committedInstType::SimdSha256Hash            0      0.00%     78.56% # Class of committed instruction. (Count)
system.cpu.commitStats0.committedInstType::SimdSha256Hash2            0      0.00%     78.56% # Class of committed instruction. (Count)
system.cpu.commitStats0.committedInstType::SimdShaSigma2            0      0.00%     78.56% # Class of committed instruction. (Count)
system.cpu.commitStats0.committedInstType::SimdShaSigma3            0      0.00%     78.56% # Class of committed instruction. (Count)
system.cpu.commitStats0.committedInstType::SimdPredAlu            0      0.00%     78.56% # Class of committed instruction. (Count)
system.cpu.commitStats0.committedInstType::Matrix            0      0.00%     78.56% # Class of committed instruction. (Count)
system.cpu.commitStats0.committedInstType::MatrixMov            0      0.00%     78.56% # Class of committed instruction. (Count)
system.cpu.commitStats0.committedInstType::MatrixOP            0      0.00%     78.56% # Class of committed instruction. (Count)
system.cpu.commitStats0.committedInstType::MemRead     38357476     13.93%     92.49% # Class of committed instruction. (Count)
system.cpu.commitStats0.committedInstType::MemWrite     17018482      6.18%     98.67% # Class of committed instruction. (Count)
system.cpu.commitStats0.committedInstType::FloatMemRead      2802805      1.02%     99.69% # Class of committed instruction. (Count)
system.cpu.commitStats0.committedInstType::FloatMemWrite       852005      0.31%    100.00% # Class of committed instruction. (Count)
system.cpu.commitStats0.committedInstType::IprAccess            0      0.00%    100.00% # Class of committed instruction. (Count)
system.cpu.commitStats0.committedInstType::InstPrefetch            0      0.00%    100.00% # Class of committed instruction. (Count)
system.cpu.commitStats0.committedInstType::SimdUnitStrideLoad            0      0.00%    100.00% # Class of committed instruction. (Count)
system.cpu.commitStats0.committedInstType::SimdUnitStrideStore            0      0.00%    100.00% # Class of committed instruction. (Count)
system.cpu.commitStats0.committedInstType::SimdUnitStrideMaskLoad            0      0.00%    100.00% # Class of committed instruction. (Count)
system.cpu.commitStats0.committedInstType::SimdUnitStrideMaskStore            0      0.00%    100.00% # Class of committed instruction. (Count)
system.cpu.commitStats0.committedInstType::SimdStridedLoad            0      0.00%    100.00% # Class of committed instruction. (Count)
system.cpu.commitStats0.committedInstType::SimdStridedStore            0      0.00%    100.00% # Class of committed instruction. (Count)
system.cpu.commitStats0.committedInstType::SimdIndexedLoad            0      0.00%    100.00% # Class of committed instruction. (Count)
system.cpu.commitStats0.committedInstType::SimdIndexedStore            0      0.00%    100.00% # Class of committed instruction. (Count)
system.cpu.commitStats0.committedInstType::SimdWholeRegisterLoad            0      0.00%    100.00% # Class of committed instruction. (Count)
system.cpu.commitStats0.committedInstType::SimdWholeRegisterStore            0      0.00%    100.00% # Class of committed instruction. (Count)
system.cpu.commitStats0.committedInstType::SimdUnitStrideFaultOnlyFirstLoad            0      0.00%    100.00% # Class of committed instruction. (Count)
system.cpu.commitStats0.committedInstType::SimdUnitStrideSegmentedLoad            0      0.00%    100.00% # Class of committed instruction. (Count)
system.cpu.commitStats0.committedInstType::SimdUnitStrideSegmentedStore            0      0.00%    100.00% # Class of committed instruction. (Count)
system.cpu.commitStats0.committedInstType::SimdExt            0      0.00%    100.00% # Class of committed instruction. (Count)
system.cpu.commitStats0.committedInstType::SimdFloatExt            0      0.00%    100.00% # Class of committed instruction. (Count)
system.cpu.commitStats0.committedInstType::SimdConfig            0      0.00%    100.00% # Class of committed instruction. (Count)
system.cpu.commitStats0.committedInstType::total    275333988                       # Class of committed instruction. (Count)
system.cpu.commitStats0.committedControl::IsControl     31052593                       # Class of control type instructions committed (Count)
system.cpu.commitStats0.committedControl::IsDirectControl     28447940                       # Class of control type instructions committed (Count)
system.cpu.commitStats0.committedControl::IsIndirectControl      2604293                       # Class of control type instructions committed (Count)
system.cpu.commitStats0.committedControl::IsCondControl     23813056                       # Class of control type instructions committed (Count)
system.cpu.commitStats0.committedControl::IsUncondControl      7239177                       # Class of control type instructions committed (Count)
system.cpu.commitStats0.committedControl::IsCall      2411847                       # Class of control type instructions committed (Count)
system.cpu.commitStats0.committedControl::IsReturn      2411842                       # Class of control type instructions committed (Count)
system.cpu.decode.idleCycles                287761223                       # Number of cycles decode is idle (Cycle)
system.cpu.decode.blockedCycles              75590339                       # Number of cycles decode is blocked (Cycle)
system.cpu.decode.runCycles                  48846152                       # Number of cycles decode is running (Cycle)
system.cpu.decode.unblockCycles               5277817                       # Number of cycles decode is unblocking (Cycle)
system.cpu.decode.squashCycles                1380483                       # Number of cycles decode is squashing (Cycle)
system.cpu.decode.branchResolved             18962768                       # Number of times decode resolved a branch (Count)
system.cpu.decode.branchMispred                 14852                       # Number of times decode detected a branch misprediction (Count)
system.cpu.decode.decodedInsts              342708991                       # Number of instructions handled by decode (Count)
system.cpu.decode.squashedInsts                 57407                       # Number of squashed instructions handled by decode (Count)
system.cpu.executeStats0.numInsts           336579816                       # Number of executed instructions (Count)
system.cpu.executeStats0.numNop                     0                       # Number of nop insts executed (Count)
system.cpu.executeStats0.numBranches         33495832                       # Number of branches executed (Count)
system.cpu.executeStats0.numLoadInsts        69710194                       # Number of load instructions executed (Count)
system.cpu.executeStats0.numStoreInsts       19227596                       # Number of stores executed (Count)
system.cpu.executeStats0.instRate            0.798751                       # Inst execution rate ((Count/Cycle))
system.cpu.executeStats0.numCCRegReads      154408137                       # Number of times the CC registers were read (Count)
system.cpu.executeStats0.numCCRegWrites      93890099                       # Number of times the CC registers were written (Count)
system.cpu.executeStats0.numFpRegReads        8784688                       # Number of times the floating registers were read (Count)
system.cpu.executeStats0.numFpRegWrites       8463885                       # Number of times the floating registers were written (Count)
system.cpu.executeStats0.numIntRegReads     359869812                       # Number of times the integer registers were read (Count)
system.cpu.executeStats0.numIntRegWrites    223282306                       # Number of times the integer registers were written (Count)
system.cpu.executeStats0.numMemRefs          88937790                       # Number of memory refs (Count)
system.cpu.executeStats0.numMiscRegReads    158529976                       # Number of times the Misc registers were read (Count)
system.cpu.executeStats0.numMiscRegWrites          954                       # Number of times the Misc registers were written (Count)
system.cpu.executeStats0.numVecAluAccesses            0                       # Number of vector alu accesses (Count)
system.cpu.executeStats0.numDiscardedOps            0                       # Number of ops (including micro ops) which were discarded before commit (Count)
system.cpu.fetch.predictedBranches           22439649                       # Number of branches that fetch has predicted taken (Count)
system.cpu.fetch.cycles                      97304995                       # Number of cycles fetch has run and was not squashing or blocked (Cycle)
system.cpu.fetch.squashCycles                 2790394                       # Number of cycles fetch has spent squashing (Cycle)
system.cpu.fetch.miscStallCycles                32536                       # Number of cycles fetch has spent waiting on interrupts, or bad addresses, or out of MSHRs (Cycle)
system.cpu.fetch.pendingTrapStallCycles         10923                       # Number of stall cycles due to pending traps (Cycle)
system.cpu.fetch.icacheWaitRetryStallCycles         4329                       # Number of stall cycles due to full MSHR (Cycle)
[...]
system.mem_ctrl.dram.bwRead::cpu.data        51832347                       # Total read bandwidth from this memory ((Byte/Second))
system.mem_ctrl.dram.bwRead::total          333243078                       # Total read bandwidth from this memory ((Byte/Second))
system.mem_ctrl.dram.bwInstRead::cpu.inst    281410731                       # Instruction read bandwidth from this memory ((Byte/Second))
system.mem_ctrl.dram.bwInstRead::total      281410731                       # Instruction read bandwidth from this memory ((Byte/Second))
system.mem_ctrl.dram.bwWrite::cpu.data       24763014                       # Write bandwidth from this memory ((Byte/Second))
system.mem_ctrl.dram.bwWrite::total          24763014                       # Write bandwidth from this memory ((Byte/Second))
system.mem_ctrl.dram.bwTotal::cpu.inst      281410731                       # Total bandwidth to/from this memory ((Byte/Second))
system.mem_ctrl.dram.bwTotal::cpu.data       76595362                       # Total bandwidth to/from this memory ((Byte/Second))
system.mem_ctrl.dram.bwTotal::total         358006092                       # Total bandwidth to/from this memory ((Byte/Second))
system.mem_ctrl.dram.readBursts                 27640                       # Number of DRAM read bursts (Count)
system.mem_ctrl.dram.writeBursts                  953                       # Number of DRAM write bursts (Count)
system.mem_ctrl.dram.perBankRdBursts::0          1088                       # Per bank write bursts (Count)
system.mem_ctrl.dram.perBankRdBursts::1           592                       # Per bank write bursts (Count)
system.mem_ctrl.dram.perBankRdBursts::2           362                       # Per bank write bursts (Count)
system.mem_ctrl.dram.perBankRdBursts::3          1315                       # Per bank write bursts (Count)
system.mem_ctrl.dram.perBankRdBursts::4          2474                       # Per bank write bursts (Count)
system.mem_ctrl.dram.perBankRdBursts::5          1335                       # Per bank write bursts (Count)
system.mem_ctrl.dram.perBankRdBursts::6          2267                       # Per bank write bursts (Count)
system.mem_ctrl.dram.perBankRdBursts::7          2226                       # Per bank write bursts (Count)
system.mem_ctrl.dram.perBankRdBursts::8           635                       # Per bank write bursts (Count)
system.mem_ctrl.dram.perBankRdBursts::9          1666                       # Per bank write bursts (Count)
system.mem_ctrl.dram.perBankRdBursts::10         1440                       # Per bank write bursts (Count)
system.mem_ctrl.dram.perBankRdBursts::11         2310                       # Per bank write bursts (Count)
system.mem_ctrl.dram.perBankRdBursts::12          938                       # Per bank write bursts (Count)
system.mem_ctrl.dram.perBankRdBursts::13          531                       # Per bank write bursts (Count)
system.mem_ctrl.dram.perBankRdBursts::14         7128                       # Per bank write bursts (Count)
system.mem_ctrl.dram.perBankRdBursts::15         1333                       # Per bank write bursts (Count)
system.mem_ctrl.dram.perBankWrBursts::0           101                       # Per bank write bursts (Count)
system.mem_ctrl.dram.perBankWrBursts::1             3                       # Per bank write bursts (Count)
system.mem_ctrl.dram.perBankWrBursts::2             0                       # Per bank write bursts (Count)
system.mem_ctrl.dram.perBankWrBursts::3             8                       # Per bank write bursts (Count)
system.mem_ctrl.dram.perBankWrBursts::4             0                       # Per bank write bursts (Count)
system.mem_ctrl.dram.perBankWrBursts::5            23                       # Per bank write bursts (Count)
system.mem_ctrl.dram.perBankWrBursts::6            11                       # Per bank write bursts (Count)
system.mem_ctrl.dram.perBankWrBursts::7            40                       # Per bank write bursts (Count)
system.mem_ctrl.dram.perBankWrBursts::8             0                       # Per bank write bursts (Count)
system.mem_ctrl.dram.perBankWrBursts::9             0                       # Per bank write bursts (Count)
system.mem_ctrl.dram.perBankWrBursts::10           68                       # Per bank write bursts (Count)
system.mem_ctrl.dram.perBankWrBursts::11           61                       # Per bank write bursts (Count)
system.mem_ctrl.dram.perBankWrBursts::12           59                       # Per bank write bursts (Count)
system.mem_ctrl.dram.perBankWrBursts::13           47                       # Per bank write bursts (Count)
system.mem_ctrl.dram.perBankWrBursts::14          521                       # Per bank write bursts (Count)
system.mem_ctrl.dram.perBankWrBursts::15           11                       # Per bank write bursts (Count)
system.mem_ctrl.dram.totQLat                348717522                       # Total ticks spent queuing (Tick)
system.mem_ctrl.dram.totBusLat              138200000                       # Total ticks spent in databus transfers (Tick)
system.mem_ctrl.dram.totMemAccLat           866967522                       # Total ticks spent from burst creation until serviced by the DRAM (Tick)
system.mem_ctrl.dram.avgQLat                 12616.41                       # Average queueing delay per DRAM burst ((Tick/Count))
system.mem_ctrl.dram.avgBusLat                5000.00                       # Average bus latency per DRAM burst ((Tick/Count))
system.mem_ctrl.dram.avgMemAccLat            31366.41                       # Average memory access latency per DRAM burst ((Tick/Count))
system.mem_ctrl.dram.readRowHits                20852                       # Number of row buffer hits during reads (Count)
system.mem_ctrl.dram.writeRowHits                 771                       # Number of row buffer hits during writes (Count)
system.mem_ctrl.dram.readRowHitRate             75.44                       # Row buffer hit rate for reads (Ratio)
system.mem_ctrl.dram.writeRowHitRate            80.90                       # Row buffer hit rate for writes (Ratio)
system.mem_ctrl.dram.bytesPerActivate::samples         6968                       # Bytes accessed per row activation (Byte)
system.mem_ctrl.dram.bytesPerActivate::mean   262.603904                       # Bytes accessed per row activation (Byte)
system.mem_ctrl.dram.bytesPerActivate::gmean   165.529896                       # Bytes accessed per row activation (Byte)
system.mem_ctrl.dram.bytesPerActivate::stdev   281.257073                       # Bytes accessed per row activation (Byte)
system.mem_ctrl.dram.bytesPerActivate::0-127         2508     35.99%     35.99% # Bytes accessed per row activation (Byte)
system.mem_ctrl.dram.bytesPerActivate::128-255         2139     30.70%     66.69% # Bytes accessed per row activation (Byte)
system.mem_ctrl.dram.bytesPerActivate::256-383          726     10.42%     77.11% # Bytes accessed per row activation (Byte)
system.mem_ctrl.dram.bytesPerActivate::384-511          383      5.50%     82.61% # Bytes accessed per row activation (Byte)
system.mem_ctrl.dram.bytesPerActivate::512-639          282      4.05%     86.65% # Bytes accessed per row activation (Byte)
system.mem_ctrl.dram.bytesPerActivate::640-767          206      2.96%     89.61% # Bytes accessed per row activation (Byte)
system.mem_ctrl.dram.bytesPerActivate::768-895          159      2.28%     91.89% # Bytes accessed per row activation (Byte)
system.mem_ctrl.dram.bytesPerActivate::896-1023          106      1.52%     93.41% # Bytes accessed per row activation (Byte)
system.mem_ctrl.dram.bytesPerActivate::1024-1151          459      6.59%    100.00% # Bytes accessed per row activation (Byte)
system.mem_ctrl.dram.bytesPerActivate::total         6968                       # Bytes accessed per row activation (Byte)
system.mem_ctrl.dram.dramBytesRead            1768960                       # Total bytes read (Byte)
system.mem_ctrl.dram.dramBytesWritten           60992                       # Total bytes written (Byte)
system.mem_ctrl.dram.avgRdBW               734.831610                       # Average DRAM read bandwidth in MiBytes/s ((Byte/Second))
system.mem_ctrl.dram.avgWrBW                25.336271                       # Average DRAM write bandwidth in MiBytes/s ((Byte/Second))
system.mem_ctrl.dram.peakBW                  12800.00                       # Theoretical peak bandwidth in MiByte/s ((Byte/Second))
system.mem_ctrl.dram.busUtil                     5.94                       # Data bus utilization in percentage (Ratio)
system.mem_ctrl.dram.busUtilRead                 5.74                       # Data bus utilization in percentage for reads (Ratio)
system.mem_ctrl.dram.busUtilWrite                0.20                       # Data bus utilization in percentage for writes (Ratio)
system.mem_ctrl.dram.pageHitRate                75.62                       # Row buffer hit rate, read and write combined (Ratio)
system.mem_ctrl.dram.power_state.pwrStateResidencyTicks::UNDEFINED   2407299816                       # Cumulative time (in ticks) in various power states (Tick)
system.mem_ctrl.dram.rank0.actEnergy         20527500                       # Energy for activate commands per rank (pJ) (Joule)
system.mem_ctrl.dram.rank0.preEnergy         10906830                       # Energy for precharge commands per rank (pJ) (Joule)
system.mem_ctrl.dram.rank0.readEnergy        83245260                       # Energy for read commands per rank (pJ) (Joule)
system.mem_ctrl.dram.rank0.writeEnergy         970920                       # Energy for write commands per rank (pJ) (Joule)
system.mem_ctrl.dram.rank0.refreshEnergy 189923760.000000                       # Energy for refresh commands per rank (pJ) (Joule)
system.mem_ctrl.dram.rank0.actBackEnergy   1023454950                       # Energy for active background per rank (pJ) (Joule)
system.mem_ctrl.dram.rank0.preBackEnergy     62546400                       # Energy for precharge background per rank (pJ) (Joule)
system.mem_ctrl.dram.rank0.actPowerDownEnergy            0                       # Energy for active power-down per rank (pJ) (Joule)
system.mem_ctrl.dram.rank0.prePowerDownEnergy            0                       # Energy for precharge power-down per rank (pJ) (Joule)
system.mem_ctrl.dram.rank0.selfRefreshEnergy            0                       # Energy for self refresh per rank (pJ) (Joule)
system.mem_ctrl.dram.rank0.totalEnergy     1391575620                       # Total energy per rank (pJ) (Joule)
system.mem_ctrl.dram.rank0.averagePower    578.064938                       # Core power per rank (mW) (Watt)
system.mem_ctrl.dram.rank0.totalIdleTime            0                       # Total Idle time Per DRAM Rank (Tick)
system.mem_ctrl.dram.rank0.pwrStateTime::IDLE    152865628                       # Time in different power states (Tick)
system.mem_ctrl.dram.rank0.pwrStateTime::REF     80340000                       # Time in different power states (Tick)
system.mem_ctrl.dram.rank0.pwrStateTime::SREF            0                       # Time in different power states (Tick)
system.mem_ctrl.dram.rank0.pwrStateTime::PRE_PDN            0                       # Time in different power states (Tick)
system.mem_ctrl.dram.rank0.pwrStateTime::ACT   2174094188                       # Time in different power states (Tick)
system.mem_ctrl.dram.rank0.pwrStateTime::ACT_PDN            0                       # Time in different power states (Tick)
system.mem_ctrl.dram.rank1.actEnergy         29238300                       # Energy for activate commands per rank (pJ) (Joule)
system.mem_ctrl.dram.rank1.preEnergy         15536730                       # Energy for precharge commands per rank (pJ) (Joule)
system.mem_ctrl.dram.rank1.readEnergy       114104340                       # Energy for read commands per rank (pJ) (Joule)
system.mem_ctrl.dram.rank1.writeEnergy        4003740                       # Energy for write commands per rank (pJ) (Joule)
system.mem_ctrl.dram.rank1.refreshEnergy 189923760.000000                       # Energy for refresh commands per rank (pJ) (Joule)
system.mem_ctrl.dram.rank1.actBackEnergy   1037364660                       # Energy for active background per rank (pJ) (Joule)
system.mem_ctrl.dram.rank1.preBackEnergy     50832960                       # Energy for precharge background per rank (pJ) (Joule)
system.mem_ctrl.dram.rank1.actPowerDownEnergy            0                       # Energy for active power-down per rank (pJ) (Joule)
system.mem_ctrl.dram.rank1.prePowerDownEnergy            0                       # Energy for precharge power-down per rank (pJ) (Joule)
system.mem_ctrl.dram.rank1.selfRefreshEnergy            0                       # Energy for self refresh per rank (pJ) (Joule)
system.mem_ctrl.dram.rank1.totalEnergy     1441004490                       # Total energy per rank (pJ) (Joule)
system.mem_ctrl.dram.rank1.averagePower    598.597848                       # Core power per rank (mW) (Watt)
system.mem_ctrl.dram.rank1.totalIdleTime            0                       # Total Idle time Per DRAM Rank (Tick)
system.mem_ctrl.dram.rank1.pwrStateTime::IDLE    122603473                       # Time in different power states (Tick)
system.mem_ctrl.dram.rank1.pwrStateTime::REF     80340000                       # Time in different power states (Tick)
system.mem_ctrl.dram.rank1.pwrStateTime::SREF            0                       # Time in different power states (Tick)
system.mem_ctrl.dram.rank1.pwrStateTime::PRE_PDN            0                       # Time in different power states (Tick)
system.mem_ctrl.dram.rank1.pwrStateTime::ACT   2204356343                       # Time in different power states (Tick)
system.mem_ctrl.dram.rank1.pwrStateTime::ACT_PDN            0                       # Time in different power states (Tick)
system.mem_ctrl.power_state.pwrStateResidencyTicks::UNDEFINED   2407299816                       # Cumulative time (in ticks) in various power states (Tick)
system.membus.transDist::ReadReq                28765                       # Transaction distribution (Count)
system.membus.transDist::ReadResp               28767                       # Transaction distribution (Count)
system.membus.transDist::WriteReq                7952                       # Transaction distribution (Count)
system.membus.transDist::WriteResp               7952                       # Transaction distribution (Count)
system.membus.transDist::LockedRMWReadReq          278                       # Transaction distribution (Count)
system.membus.transDist::LockedRMWReadResp          278                       # Transaction distribution (Count)
system.membus.transDist::LockedRMWWriteReq          278                       # Transaction distribution (Count)
system.membus.transDist::LockedRMWWriteResp          278                       # Transaction distribution (Count)
system.membus.pktCount_system.cpu.icache_port::system.mem_ctrl.port        21171                       # Packet count per connected requestor and responder (Count)
system.membus.pktCount_system.cpu.icache_port::total        21171                       # Packet count per connected requestor and responder (Count)
system.membus.pktCount_system.cpu.dcache_port::system.mem_ctrl.port        53377                       # Packet count per connected requestor and responder (Count)
system.membus.pktCount_system.cpu.dcache_port::total        53377                       # Packet count per connected requestor and responder (Count)
system.membus.pktCount::total                   74548                       # Packet count per connected requestor and responder (Count)
system.membus.pktSize_system.cpu.icache_port::system.mem_ctrl.port       677504                       # Cumulative packet size per connected requestor and responder (Byte)
system.membus.pktSize_system.cpu.icache_port::total       677504                       # Cumulative packet size per connected requestor and responder (Byte)
system.membus.pktSize_system.cpu.dcache_port::system.mem_ctrl.port       184396                       # Cumulative packet size per connected requestor and responder (Byte)
system.membus.pktSize_system.cpu.dcache_port::total       184396                       # Cumulative packet size per connected requestor and responder (Byte)
system.membus.pktSize::total                   861900                       # Cumulative packet size per connected requestor and responder (Byte)
system.membus.snoops                                0                       # Total snoops (Count)
system.membus.snoopTraffic                          0                       # Total snoop traffic (Byte)
system.membus.snoopFanout::samples              37273                       # Request fanout histogram (Count)
system.membus.snoopFanout::mean                     0                       # Request fanout histogram (Count)
system.membus.snoopFanout::stdev                    0                       # Request fanout histogram (Count)
system.membus.snoopFanout::underflows               0      0.00%      0.00% # Request fanout histogram (Count)
system.membus.snoopFanout::0                    37273    100.00%    100.00% # Request fanout histogram (Count)
system.membus.snoopFanout::1                        0      0.00%    100.00% # Request fanout histogram (Count)
system.membus.snoopFanout::overflows                0      0.00%    100.00% # Request fanout histogram (Count)
system.membus.snoopFanout::min_value                0                       # Request fanout histogram (Count)
system.membus.snoopFanout::max_value                0                       # Request fanout histogram (Count)
system.membus.snoopFanout::total                37273                       # Request fanout histogram (Count)
system.membus.power_state.pwrStateResidencyTicks::UNDEFINED   2407299816                       # Cumulative time (in ticks) in various power states (Tick)
system.membus.reqLayer2.occupancy           606691499                       # Layer occupancy (ticks) (Tick)
system.membus.reqLayer2.utilization               0.3                       # Layer utilization (Ratio)
system.membus.respLayer1.occupancy          727562378                       # Layer occupancy (ticks) (Tick)
system.membus.respLayer1.utilization              0.3                       # Layer utilization (Ratio)
system.membus.respLayer2.occupancy          636951908                       # Layer occupancy (ticks) (Tick)
system.membus.respLayer2.utilization              0.3                       # Layer utilization (Ratio)
system.membus.snoop_filter.totRequests              0                       # Total number of requests made to the snoop filter. (Count)
system.membus.snoop_filter.hitSingleRequests            0                       # Number of requests hitting in the snoop filter with a single holder of the requested data. (Count)
system.membus.snoop_filter.hitMultiRequests            0                       # Number of requests hitting in the snoop filter with multiple (>1) holders of the requested data. (Count)
system.membus.snoop_filter.totSnoops                0                       # Total number of snoops made to the snoop filter. (Count)
system.membus.snoop_filter.hitSingleSnoops            0                       # Number of snoops hitting in the snoop filter with a single holder of the requested data. (Count)
system.membus.snoop_filter.hitMultiSnoops            0                       # Number of snoops hitting in the snoop filter with multiple (>1) holders of the requested data. (Count)
system.workload.inst.arm                            0                       # number of arm instructions executed (Count)
system.workload.inst.quiesce                        0                       # number of quiesce instructions executed (Count)

---------- End Simulation Statistics   ----------
