
---------- Begin Simulation Statistics ----------
simSeconds                                   2.871512                       # Number of seconds simulated (Second)
simTicks                                 2871512477060                       # Number of ticks simulated (Tick)
finalTick                                2871512477060                       # Number of ticks from beginning of simulation (restored from checkpoints and never reset) (Tick)
simFreq                                  1000000000000                       # The number of ticks per simulated second ((Tick/Second))
hostSeconds                                    462.28                       # Real time elapsed on the host (Second)
hostTickRate                               6211652599                       # The number of ticks simulated per host second (ticks/s) ((Tick/Second))
hostMemory                                    8620312                       # Number of bytes of host memory used (Byte)
simInsts                                     85139557                       # Number of instructions simulated (Count)
simOps                                      156345158                       # Number of ops (including micro ops) simulated (Count)
hostInstRate                                   184174                       # Simulator instruction rate (inst/s) ((Count/Second))
hostOpRate                                     338206                       # Simulator op (including micro ops) rate (op/s) ((Count/Second))
system.clk_domain.clock                         13333                       # Clock period in ticks (Tick)
system.clk_domain.voltage_domain.voltage            1                       # Voltage in Volts (Volt)
system.cpu.numCycles                        215368821                       # Number of cpu cycles simulated (Cycle)
system.cpu.cpi                               2.529598                       # CPI: cycles per instruction (core level) ((Cycle/Count))
system.cpu.ipc                               0.395320                       # IPC: instructions per cycle (core level) ((Count/Cycle))
system.cpu.numWorkItemsStarted                      0                       # Number of work items this cpu started (Count)
system.cpu.numWorkItemsCompleted                    0                       # Number of work items this cpu completed (Count)
system.cpu.instsAdded                       165235357                       # Number of instructions added to the IQ (excludes non-spec) (Count)
system.cpu.nonSpecInstsAdded                     2451                       # Number of non-speculative instructions added to the IQ (Count)
system.cpu.instsIssued                      170362559                       # Number of instructions issued (Count)
system.cpu.squashedInstsIssued                  32361                       # Number of squashed instructions issued (Count)
system.cpu.squashedInstsExamined              8892642                       # Number of squashed instructions iterated over during squash; mainly for profiling (Count)
system.cpu.squashedOperandsExamined          11917545                       # Number of squashed operands that are examined and possibly removed from graph (Count)
system.cpu.squashedNonSpecRemoved                 209                       # Number of squashed non-spec instructions that were removed (Count)
system.cpu.numIssuedDist::samples           213142549                       # Number of insts issued each cycle (Count)
system.cpu.numIssuedDist::mean               0.799289                       # Number of insts issued each cycle (Count)
system.cpu.numIssuedDist::stdev              1.400602                       # Number of insts issued each cycle (Count)
system.cpu.numIssuedDist::underflows                0      0.00%      0.00% # Number of insts issued each cycle (Count)
system.cpu.numIssuedDist::0                 137702969     64.61%     64.61% # Number of insts issued each cycle (Count)
system.cpu.numIssuedDist::1                  32157064     15.09%     79.69% # Number of insts issued each cycle (Count)
system.cpu.numIssuedDist::2                  16998165      7.98%     87.67% # Number of insts issued each cycle (Count)
system.cpu.numIssuedDist::3                  12725433      5.97%     93.64% # Number of insts issued each cycle (Count)
system.cpu.numIssuedDist::4                   7102418      3.33%     96.97% # Number of insts issued each cycle (Count)
system.cpu.numIssuedDist::5                   3298178      1.55%     98.52% # Number of insts issued each cycle (Count)
system.cpu.numIssuedDist::6                   1698748      0.80%     99.32% # Number of insts issued each cycle (Count)
system.cpu.numIssuedDist::7                    736776      0.35%     99.66% # Number of insts issued each cycle (Count)
system.cpu.numIssuedDist::8                    722798      0.34%    100.00% # Number of insts issued each cycle (Count)
system.cpu.numIssuedDist::overflows                 0      0.00%    100.00% # Number of insts issued each cycle (Count)
system.cpu.numIssuedDist::min_value                 0                       # Number of insts issued each cycle (Count)
system.cpu.numIssuedDist::max_value                 8                       # Number of insts issued each cycle (Count)
system.cpu.numIssuedDist::total             213142549                       # Number of insts issued each cycle (Count)
system.cpu.statFuBusy::No_OpClass                   0      0.00%      0.00% # attempts to use FU when none available (Count)
system.cpu.statFuBusy::IntAlu                  408928     93.07%     93.07% # attempts to use FU when none available (Count)
system.cpu.statFuBusy::IntMult                      0      0.00%     93.07% # attempts to use FU when none available (Count)
system.cpu.statFuBusy::IntDiv                       0      0.00%     93.07% # attempts to use FU when none available (Count)
system.cpu.statFuBusy::FloatAdd                     0      0.00%     93.07% # attempts to use FU when none available (Count)
system.cpu.statFuBusy::FloatCmp                     0      0.00%     93.07% # attempts to use FU when none available (Count)
system.cpu.statFuBusy::FloatCvt                     0      0.00%     93.07% # attempts to use FU when none available (Count)
system.cpu.statFuBusy::FloatMult                    0      0.00%     93.07% # attempts to use FU when none available (Count)
system.cpu.statFuBusy::FloatMultAcc                 0      0.00%     93.07% # attempts to use FU when none available (Count)
system.cpu.statFuBusy::FloatDiv                     0      0.00%     93.07% # attempts to use FU when none available (Count)
system.cpu.statFuBusy::FloatMisc                    0      0.00%     93.07% # attempts to use FU when none available (Count)
system.cpu.statFuBusy::FloatSqrt                    0      0.00%     93.07% # attempts to use FU when none available (Count)
system.cpu.statFuBusy::SimdAdd                      0      0.00%     93.07% # attempts to use FU when none available (Count)
system.cpu.statFuBusy::SimdAddAcc                   0      0.00%     93.07% # attempts to use FU when none available (Count)
system.cpu.statFuBusy::SimdAlu                    132      0.03%     93.10% # attempts to use FU when none available (Count)
system.cpu.statFuBusy::SimdCmp                      0      0.00%     93.10% # attempts to use FU when none available (Count)
system.cpu.statFuBusy::SimdCvt                      2      0.00%     93.10% # attempts to use FU when none available (Count)
system.cpu.statFuBusy::SimdMisc                     0      0.00%     93.10% # attempts to use FU when none available (Count)
system.cpu.statFuBusy::SimdMult                     0      0.00%     93.10% # attempts to use FU when none available (Count)
system.cpu.statFuBusy::SimdMultAcc                  0      0.00%     93.10% # attempts to use FU when none available (Count)
system.cpu.statFuBusy::SimdMatMultAcc               0      0.00%     93.10% # attempts to use FU when none available (Count)
system.cpu.statFuBusy::SimdShift                    0      0.00%     93.10% # attempts to use FU when none available (Count)
system.cpu.statFuBusy::SimdShiftAcc                 0      0.00%     93.10% # attempts to use FU when none available (Count)
system.cpu.statFuBusy::SimdDiv                      0      0.00%     93.10% # attempts to use FU when none available (Count)
system.cpu.statFuBusy::SimdSqrt                     0      0.00%     93.10% # attempts to use FU when none available (Count)
system.cpu.statFuBusy::SimdFloatAdd                 0      0.00%     93.10% # attempts to use FU when none available (Count)
system.cpu.statFuBusy::SimdFloatAlu                 0      0.00%     93.10% # attempts to use FU when none available (Count)
system.cpu.statFuBusy::SimdFloatCmp                 0      0.00%     93.10% # attempts to use FU when none available (Count)
system.cpu.statFuBusy::SimdFloatCvt                 0      0.00%     93.10% # attempts to use FU when none available (Count)
system.cpu.statFuBusy::SimdFloatDiv                 0      0.00%     93.10% # attempts to use FU when none available (Count)
system.cpu.statFuBusy::SimdFloatMisc                0      0.00%     93.10% # attempts to use FU when none available (Count)
system.cpu.statFuBusy::SimdFloatMult                0      0.00%     93.10% # attempts to use FU when none available (Count)
system.cpu.statFuBusy::SimdFloatMultAcc             0      0.00%     93.10% # attempts to use FU when none available (Count)
system.cpu.statFuBusy::SimdFloatMatMultAcc            0      0.00%     93.10% # attempts to use FU when none available (Count)
system.cpu.statFuBusy::SimdFloatSqrt                0      0.00%     93.10% # attempts to use FU when none available (Count)
system.cpu.statFuBusy::SimdReduceAdd                0      0.00%     93.10% # attempts to use FU when none available (Count)
system.cpu.statFuBusy::SimdReduceAlu                0      0.00%     93.10% # attempts to use FU when none available (Count)
system.cpu.statFuBusy::SimdReduceCmp                0      0.00%     93.10% # attempts to use FU when none available (Count)
system.cpu.statFuBusy::SimdFloatReduceAdd            0      0.00%     93.10% # attempts to use FU when none available (Count)
system.cpu.statFuBusy::SimdFloatReduceCmp            0      0.00%     93.10% # attempts to use FU when none available (Count)
system.cpu.statFuBusy::SimdAes                      0      0.00%     93.10% # attempts to use FU when none available (Count)
system.cpu.statFuBusy::SimdAesMix                   0      0.00%     93.10% # attempts to use FU when none available (Count)
system.cpu.statFuBusy::SimdSha1Hash                 0      0.00%     93.10% # attempts to use FU when none available (Count)
system.cpu.statFuBusy::SimdSha1Hash2                0      0.00%     93.10% # attempts to use FU when none available (Count)
system.cpu.statFuBusy::SimdSha256Hash               0      0.00%     93.10% # attempts to use FU when none available (Count)
system.cpu.statFuBusy::SimdSha256Hash2              0      0.00%     93.10% # attempts to use FU when none available (Count)
system.cpu.statFuBusy::SimdShaSigma2                0      0.00%     93.10% # attempts to use FU when none available (Count)
system.cpu.statFuBusy::SimdShaSigma3                0      0.00%     93.10% # attempts to use FU when none available (Count)
system.cpu.statFuBusy::SimdPredAlu                  0      0.00%     93.10% # attempts to use FU when none available (Count)
system.cpu.statFuBusy::Matrix                       0      0.00%     93.10% # attempts to use FU when none available (Count)
system.cpu.statFuBusy::MatrixMov                    0      0.00%     93.10% # attempts to use FU when none available (Count)
system.cpu.statFuBusy::MatrixOP                     0      0.00%     93.10% # attempts to use FU when none available (Count)
system.cpu.statFuBusy::MemRead                  15998      3.64%     96.74% # attempts to use FU when none available (Count)
system.cpu.statFuBusy::MemWrite                 10935      2.49%     99.23% # attempts to use FU when none available (Count)
system.cpu.statFuBusy::FloatMemRead              3061      0.70%     99.92% # attempts to use FU when none available (Count)
system.cpu.statFuBusy::FloatMemWrite              333      0.08%    100.00% # attempts to use FU when none available (Count)
system.cpu.statFuBusy::IprAccess                    0      0.00%    100.00% # attempts to use FU when none available (Count)
system.cpu.statFuBusy::InstPrefetch                 0      0.00%    100.00% # attempts to use FU when none available (Count)
system.cpu.statFuBusy::SimdUnitStrideLoad            0      0.00%    100.00% # attempts to use FU when none available (Count)
system.cpu.statFuBusy::SimdUnitStrideStore            0      0.00%    100.00% # attempts to use FU when none available (Count)
system.cpu.statFuBusy::SimdUnitStrideMaskLoad            0      0.00%    100.00% # attempts to use FU when none available (Count)
system.cpu.statFuBusy::SimdUnitStrideMaskStore            0      0.00%    100.00% # attempts to use FU when none available (Count)
system.cpu.statFuBusy::SimdStridedLoad              0      0.00%    100.00% # attempts to use FU when none available (Count)
system.cpu.statFuBusy::SimdStridedStore             0      0.00%    100.00% # attempts to use FU when none available (Count)
system.cpu.statFuBusy::SimdIndexedLoad              0      0.00%    100.00% # attempts to use FU when none available (Count)
system.cpu.statFuBusy::SimdIndexedStore             0      0.00%    100.00% # attempts to use FU when none available (Count)
system.cpu.statFuBusy::SimdWholeRegisterLoad            0      0.00%    100.00% # attempts to use FU when none available (Count)
system.cpu.statFuBusy::SimdWholeRegisterStore            0      0.00%    100.00% # attempts to use FU when none available (Count)
system.cpu.statFuBusy::SimdUnitStrideFaultOnlyFirstLoad            0      0.00%    100.00% # attempts to use FU when none available (Count)
system.cpu.statFuBusy::SimdUnitStrideSegmentedLoad            0      0.00%    100.00% # attempts to use FU when none available (Count)
system.cpu.statFuBusy::SimdUnitStrideSegmentedStore            0      0.00%    100.00% # attempts to use FU when none available (Count)
system.cpu.statFuBusy::SimdExt                      0      0.00%    100.00% # attempts to use FU when none available (Count)
system.cpu.statFuBusy::SimdFloatExt                 0      0.00%    100.00% # attempts to use FU when none available (Count)
system.cpu.statFuBusy::SimdConfig                   0      0.00%    100.00% # attempts to use FU when none available (Count)
system.cpu.statIssuedInstType_0::No_OpClass       478427      0.28%      0.28% # Number of instructions issued per FU type, per thread (Count)
system.cpu.statIssuedInstType_0::IntAlu     132029149     77.50%     77.78% # Number of instructions issued per FU type, per thread (Count)
system.cpu.statIssuedInstType_0::IntMult          171      0.00%     77.78% # Number of instructions issued per FU type, per thread (Count)
system.cpu.statIssuedInstType_0::IntDiv         42409      0.02%     77.80% # Number of instructions issued per FU type, per thread (Count)
system.cpu.statIssuedInstType_0::FloatAdd         9250      0.01%     77.81% # Number of instructions issued per FU type, per thread (Count)
system.cpu.statIssuedInstType_0::FloatCmp            0      0.00%     77.81% # Number of instructions issued per FU type, per thread (Count)
system.cpu.statIssuedInstType_0::FloatCvt         1232      0.00%     77.81% # Number of instructions issued per FU type, per thread (Count)
system.cpu.statIssuedInstType_0::FloatMult            0      0.00%     77.81% # Number of instructions issued per FU type, per thread (Count)
system.cpu.statIssuedInstType_0::FloatMultAcc            0      0.00%     77.81% # Number of instructions issued per FU type, per thread (Count)
system.cpu.statIssuedInstType_0::FloatDiv            0      0.00%     77.81% # Number of instructions issued per FU type, per thread (Count)
system.cpu.statIssuedInstType_0::FloatMisc            0      0.00%     77.81% # Number of instructions issued per FU type, per thread (Count)
system.cpu.statIssuedInstType_0::FloatSqrt            0      0.00%     77.81% # Number of instructions issued per FU type, per thread (Count)
system.cpu.statIssuedInstType_0::SimdAdd        15040      0.01%     77.82% # Number of instructions issued per FU type, per thread (Count)
system.cpu.statIssuedInstType_0::SimdAddAcc            0      0.00%     77.82% # Number of instructions issued per FU type, per thread (Count)
system.cpu.statIssuedInstType_0::SimdAlu       305696      0.18%     78.00% # Number of instructions issued per FU type, per thread (Count)
system.cpu.statIssuedInstType_0::SimdCmp           43      0.00%     78.00% # Number of instructions issued per FU type, per thread (Count)
system.cpu.statIssuedInstType_0::SimdCvt        13987      0.01%     78.01% # Number of instructions issued per FU type, per thread (Count)
system.cpu.statIssuedInstType_0::SimdMisc        14800      0.01%     78.02% # Number of instructions issued per FU type, per thread (Count)
system.cpu.statIssuedInstType_0::SimdMult            0      0.00%     78.02% # Number of instructions issued per FU type, per thread (Count)
system.cpu.statIssuedInstType_0::SimdMultAcc            0      0.00%     78.02% # Number of instructions issued per FU type, per thread (Count)
system.cpu.statIssuedInstType_0::SimdMatMultAcc            0      0.00%     78.02% # Number of instructions issued per FU type, per thread (Count)
system.cpu.statIssuedInstType_0::SimdShift         2776      0.00%     78.02% # Number of instructions issued per FU type, per thread (Count)
system.cpu.statIssuedInstType_0::SimdShiftAcc            0      0.00%     78.02% # Number of instructions issued per FU type, per thread (Count)
system.cpu.statIssuedInstType_0::SimdDiv            0      0.00%     78.02% # Number of instructions issued per FU type, per thread (Count)
system.cpu.statIssuedInstType_0::SimdSqrt            0      0.00%     78.02% # Number of instructions issued per FU type, per thread (Count)
system.cpu.statIssuedInstType_0::SimdFloatAdd           13      0.00%     78.02% # Number of instructions issued per FU type, per thread (Count)
system.cpu.statIssuedInstType_0::SimdFloatAlu            0      0.00%     78.02% # Number of instructions issued per FU type, per thread (Count)
system.cpu.statIssuedInstType_0::SimdFloatCmp            0      0.00%     78.02% # Number of instructions issued per FU type, per thread (Count)
system.cpu.statIssuedInstType_0::SimdFloatCvt           26      0.00%     78.02% # Number of instructions issued per FU type, per thread (Count)
system.cpu.statIssuedInstType_0::SimdFloatDiv           13      0.00%     78.02% # Number of instructions issued per FU type, per thread (Count)
system.cpu.statIssuedInstType_0::SimdFloatMisc            0      0.00%     78.02% # Number of instructions issued per FU type, per thread (Count)
system.cpu.statIssuedInstType_0::SimdFloatMult            0      0.00%     78.02% # Number of instructions issued per FU type, per thread (Count)
system.cpu.statIssuedInstType_0::SimdFloatMultAcc            0      0.00%     78.02% # Number of instructions issued per FU type, per thread (Count)
system.cpu.statIssuedInstType_0::SimdFloatMatMultAcc            0      0.00%     78.02% # Number of instructions issued per FU type, per thread (Count)
system.cpu.statIssuedInstType_0::SimdFloatSqrt            0      0.00%     78.02% # Number of instructions issued per FU type, per thread (Count)
system.cpu.statIssuedInstType_0::SimdReduceAdd            0      0.00%     78.02% # Number of instructions issued per FU type, per thread (Count)
system.cpu.statIssuedInstType_0::SimdReduceAlu            0      0.00%     78.02% # Number of instructions issued per FU type, per thread (Count)
system.cpu.statIssuedInstType_0::SimdReduceCmp            0      0.00%     78.02% # Number of instructions issued per FU type, per thread (Count)
system.cpu.statIssuedInstType_0::SimdFloatReduceAdd            0      0.00%     78.02% # Number of instructions issued per FU type, per thread (Count)
system.cpu.statIssuedInstType_0::SimdFloatReduceCmp            0      0.00%     78.02% # Number of instructions issued per FU type, per thread (Count)
system.cpu.statIssuedInstType_0::SimdAes            0      0.00%     78.02% # Number of instructions issued per FU type, per thread (Count)
system.cpu.statIssuedInstType_0::SimdAesMix            0      0.00%     78.02% # Number of instructions issued per FU type, per thread (Count)
system.cpu.statIssuedInstType_0::SimdSha1Hash            0      0.00%     78.02% # Number of instructions issued per FU type, per thread (Count)
system.cpu.statIssuedInstType_0::SimdSha1Hash2            0      0.00%     78.02% # Number of instructions issued per FU type, per thread (Count)
system.cpu.statIssuedInstType_0::SimdSha256Hash            0      0.00%     78.02% # Number of instructions issued per FU type, per thread (Count)
system.cpu.statIssuedInstType_0::SimdSha256Hash2            0      0.00%     78.02% # Number of instructions issued per FU type, per thread (Count)
system.cpu.statIssuedInstType_0::SimdShaSigma2            0      0.00%     78.02% # Number of instructions issued per FU type, per thread (Count)
system.cpu.statIssuedInstType_0::SimdShaSigma3            0      0.00%     78.02% # Number of instructions issued per FU type, per thread (Count)
system.cpu.statIssuedInstType_0::SimdPredAlu            0      0.00%     78.02% # Number of instructions issued per FU type, per thread (Count)
system.cpu.statIssuedInstType_0::Matrix             0      0.00%     78.02% # Number of instructions issued per FU type, per thread (Count)
system.cpu.statIssuedInstType_0::MatrixMov            0      0.00%     78.02% # Number of instructions issued per FU type, per thread (Count)
system.cpu.statIssuedInstType_0::MatrixOP            0      0.00%     78.02% # Number of instructions issued per FU type, per thread (Count)
system.cpu.statIssuedInstType_0::MemRead     31671273     18.59%     96.61% # Number of instructions issued per FU type, per thread (Count)
system.cpu.statIssuedInstType_0::MemWrite      4219080      2.48%     99.08% # Number of instructions issued per FU type, per thread (Count)
system.cpu.statIssuedInstType_0::FloatMemRead       753816      0.44%     99.53% # Number of instructions issued per FU type, per thread (Count)
system.cpu.statIssuedInstType_0::FloatMemWrite       805358      0.47%    100.00% # Number of instructions issued per FU type, per thread (Count)
system.cpu.statIssuedInstType_0::IprAccess            0      0.00%    100.00% # Number of instructions issued per FU type, per thread (Count)
system.cpu.statIssuedInstType_0::InstPrefetch            0      0.00%    100.00% # Number of instructions issued per FU type, per thread (Count)
system.cpu.statIssuedInstType_0::SimdUnitStrideLoad            0      0.00%    100.00% # Number of instructions issued per FU type, per thread (Count)
system.cpu.statIssuedInstType_0::SimdUnitStrideStore            0      0.00%    100.00% # Number of instructions issued per FU type, per thread (Count)
system.cpu.statIssuedInstType_0::SimdUnitStrideMaskLoad            0      0.00%    100.00% # Number of instructions issued per FU type, per thread (Count)
system.cpu.statIssuedInstType_0::SimdUnitStrideMaskStore            0      0.00%    100.00% # Number of instructions issued per FU type, per thread (Count)
system.cpu.statIssuedInstType_0::SimdStridedLoad            0      0.00%    100.00% # Number of instructions issued per FU type, per thread (Count)
system.cpu.statIssuedInstType_0::SimdStridedStore            0      0.00%    100.00% # Number of instructions issued per FU type, per thread (Count)
system.cpu.statIssuedInstType_0::SimdIndexedLoad            0      0.00%    100.00% # Number of instructions issued per FU type, per thread (Count)
system.cpu.statIssuedInstType_0::SimdIndexedStore            0      0.00%    100.00% # Number of instructions issued per FU type, per thread (Count)
system.cpu.statIssuedInstType_0::SimdWholeRegisterLoad            0      0.00%    100.00% # Number of instructions issued per FU type, per thread (Count)
system.cpu.statIssuedInstType_0::SimdWholeRegisterStore            0      0.00%    100.00% # Number of instructions issued per FU type, per thread (Count)
system.cpu.statIssuedInstType_0::SimdUnitStrideFaultOnlyFirstLoad            0      0.00%    100.00% # Number of instructions issued per FU type, per thread (Count)
system.cpu.statIssuedInstType_0::SimdUnitStrideSegmentedLoad            0      0.00%    100.00% # Number of instructions issued per FU type, per thread (Count)
system.cpu.statIssuedInstType_0::SimdUnitStrideSegmentedStore            0      0.00%    100.00% # Number of instructions issued per FU type, per thread (Count)
system.cpu.statIssuedInstType_0::SimdExt            0      0.00%    100.00% # Number of instructions issued per FU type, per thread (Count)
system.cpu.statIssuedInstType_0::SimdFloatExt            0      0.00%    100.00% # Number of instructions issued per FU type, per thread (Count)
system.cpu.statIssuedInstType_0::SimdConfig            0      0.00%    100.00% # Number of instructions issued per FU type, per thread (Count)
system.cpu.statIssuedInstType_0::total      170362559                       # Number of instructions issued per FU type, per thread (Count)
system.cpu.issueRate                         0.791027                       # Inst issue rate ((Count/Cycle))
system.cpu.fuBusy                              439389                       # FU busy when requested (Count)
system.cpu.fuBusyRate                        0.002579                       # FU busy rate (busy events/executed inst) ((Count/Count))
system.cpu.intInstQueueReads                550482549                       # Number of integer instruction queue reads (Count)
system.cpu.intInstQueueWrites               172605100                       # Number of integer instruction queue writes (Count)
system.cpu.intInstQueueWakeupAccesses       160911849                       # Number of integer instruction queue wakeup accesses (Count)
system.cpu.fpInstQueueReads                   3856868                       # Number of floating instruction queue reads (Count)
system.cpu.fpInstQueueWrites                  1525616                       # Number of floating instruction queue writes (Count)
system.cpu.fpInstQueueWakeupAccesses          1496013                       # Number of floating instruction queue wakeup accesses (Count)
system.cpu.vecInstQueueReads                        0                       # Number of vector instruction queue reads (Count)
system.cpu.vecInstQueueWrites                       0                       # Number of vector instruction queue writes (Count)
system.cpu.vecInstQueueWakeupAccesses               0                       # Number of vector instruction queue wakeup accesses (Count)
system.cpu.intAluAccesses                   168393503                       # Number of integer alu accesses (Count)
system.cpu.fpAluAccesses                      1930018                       # Number of floating point alu accesses (Count)
system.cpu.vecAluAccesses                           0                       # Number of vector alu accesses (Count)
system.cpu.numSquashedInsts                    152433                       # Number of squashed instructions skipped in execute (Count)
system.cpu.numSwp                                   0                       # Number of swp insts executed (Count)
system.cpu.timesIdled                          386901                       # Number of times that the entire CPU went into an idle state and unscheduled itself (Count)
system.cpu.idleCycles                         2226272                       # Total number of cycles that the CPU has spent unscheduled due to idling (Cycle)
system.cpu.MemDepUnit__0.insertedLoads       25391565                       # Number of loads inserted to the mem dependence unit. (Count)
system.cpu.MemDepUnit__0.insertedStores       5148786                       # Number of stores inserted to the mem dependence unit. (Count)
system.cpu.MemDepUnit__0.conflictingLoads       616467                       # Number of conflicting loads. (Count)
system.cpu.MemDepUnit__0.conflictingStores       520859                       # Number of conflicting stores. (Count)
system.cpu.MemDepUnit__1.insertedLoads              0                       # Number of loads inserted to the mem dependence unit. (Count)
system.cpu.MemDepUnit__1.insertedStores             0                       # Number of stores inserted to the mem dependence unit. (Count)
system.cpu.MemDepUnit__1.conflictingLoads            0                       # Number of conflicting loads. (Count)
system.cpu.MemDepUnit__1.conflictingStores            0                       # Number of conflicting stores. (Count)
system.cpu.MemDepUnit__2.insertedLoads              0                       # Number of loads inserted to the mem dependence unit. (Count)
system.cpu.MemDepUnit__2.insertedStores             0                       # Number of stores inserted to the mem dependence unit. (Count)
system.cpu.MemDepUnit__2.conflictingLoads            0                       # Number of conflicting loads. (Count)
system.cpu.MemDepUnit__2.conflictingStores            0                       # Number of conflicting stores. (Count)
system.cpu.MemDepUnit__3.insertedLoads              0                       # Number of loads inserted to the mem dependence unit. (Count)
system.cpu.MemDepUnit__3.insertedStores             0                       # Number of stores inserted to the mem dependence unit. (Count)
system.cpu.MemDepUnit__3.conflictingLoads            0                       # Number of conflicting loads. (Count)
system.cpu.MemDepUnit__3.conflictingStores            0                       # Number of conflicting stores. (Count)
system.cpu.branchPred.lookups_0::NoBranch         1943      0.01%      0.01% # Number of BP lookups (Count)
system.cpu.branchPred.lookups_0::Return        321460      1.74%      1.75% # Number of BP lookups (Count)
system.cpu.branchPred.lookups_0::CallDirect       358500      1.94%      3.69% # Number of BP lookups (Count)
system.cpu.branchPred.lookups_0::CallIndirect         1113      0.01%      3.70% # Number of BP lookups (Count)
system.cpu.branchPred.lookups_0::DirectCond     16830942     91.06%     94.75% # Number of BP lookups (Count)
system.cpu.branchPred.lookups_0::DirectUncond       960009      5.19%     99.95% # Number of BP lookups (Count)
system.cpu.branchPred.lookups_0::IndirectCond            0      0.00%     99.95% # Number of BP lookups (Count)
system.cpu.branchPred.lookups_0::IndirectUncond         9542      0.05%    100.00% # Number of BP lookups (Count)
system.cpu.branchPred.lookups_0::total       18483509                       # Number of BP lookups (Count)
system.cpu.branchPred.squashes_0::NoBranch         1683      0.15%      0.15% # Number of branches that got squashed (completely removed) as an earlier branch was mispredicted. (Count)
system.cpu.branchPred.squashes_0::Return          948      0.08%      0.23% # Number of branches that got squashed (completely removed) as an earlier branch was mispredicted. (Count)
system.cpu.branchPred.squashes_0::CallDirect        38588      3.40%      3.63% # Number of branches that got squashed (completely removed) as an earlier branch was mispredicted. (Count)
system.cpu.branchPred.squashes_0::CallIndirect          509      0.04%      3.67% # Number of branches that got squashed (completely removed) as an earlier branch was mispredicted. (Count)
system.cpu.branchPred.squashes_0::DirectCond      1037437     91.33%     95.01% # Number of branches that got squashed (completely removed) as an earlier branch was mispredicted. (Count)
system.cpu.branchPred.squashes_0::DirectUncond        52533      4.62%     99.63% # Number of branches that got squashed (completely removed) as an earlier branch was mispredicted. (Count)
system.cpu.branchPred.squashes_0::IndirectCond            0      0.00%     99.63% # Number of branches that got squashed (completely removed) as an earlier branch was mispredicted. (Count)
system.cpu.branchPred.squashes_0::IndirectUncond         4174      0.37%    100.00% # Number of branches that got squashed (completely removed) as an earlier branch was mispredicted. (Count)
system.cpu.branchPred.squashes_0::total       1135872                       # Number of branches that got squashed (completely removed) as an earlier branch was mispredicted. (Count)
system.cpu.branchPred.corrected_0::NoBranch          394      0.06%      0.06% # Number of branches that got corrected but not yet commited. Branches get corrected by decode or after execute. Also a branch misprediction can be detected out-of-order. Therefore, a corrected branch might not end up beeing committed in case an even earlier branch was mispredicted (Count)
system.cpu.branchPred.corrected_0::Return            3      0.00%      0.06% # Number of branches that got corrected but not yet commited. Branches get corrected by decode or after execute. Also a branch misprediction can be detected out-of-order. Therefore, a corrected branch might not end up beeing committed in case an even earlier branch was mispredicted (Count)
system.cpu.branchPred.corrected_0::CallDirect          811      0.13%      0.19% # Number of branches that got corrected but not yet commited. Branches get corrected by decode or after execute. Also a branch misprediction can be detected out-of-order. Therefore, a corrected branch might not end up beeing committed in case an even earlier branch was mispredicted (Count)
system.cpu.branchPred.corrected_0::CallIndirect          224      0.04%      0.22% # Number of branches that got corrected but not yet commited. Branches get corrected by decode or after execute. Also a branch misprediction can be detected out-of-order. Therefore, a corrected branch might not end up beeing committed in case an even earlier branch was mispredicted (Count)
system.cpu.branchPred.corrected_0::DirectCond       636111     99.50%     99.72% # Number of branches that got corrected but not yet commited. Branches get corrected by decode or after execute. Also a branch misprediction can be detected out-of-order. Therefore, a corrected branch might not end up beeing committed in case an even earlier branch was mispredicted (Count)
system.cpu.branchPred.corrected_0::DirectUncond          616      0.10%     99.82% # Number of branches that got corrected but not yet commited. Branches get corrected by decode or after execute. Also a branch misprediction can be detected out-of-order. Therefore, a corrected branch might not end up beeing committed in case an even earlier branch was mispredicted (Count)
system.cpu.branchPred.corrected_0::IndirectCond            0      0.00%     99.82% # Number of branches that got corrected but not yet commited. Branches get corrected by decode or after execute. Also a branch misprediction can be detected out-of-order. Therefore, a corrected branch might not end up beeing committed in case an even earlier branch was mispredicted (Count)
system.cpu.branchPred.corrected_0::IndirectUncond         1166      0.18%    100.00% # Number of branches that got corrected but not yet commited. Branches get corrected by decode or after execute. Also a branch misprediction can be detected out-of-order. Therefore, a corrected branch might not end up beeing committed in case an even earlier branch was mispredicted (Count)
system.cpu.branchPred.corrected_0::total       639325                       # Number of branches that got corrected but not yet commited. Branches get corrected by decode or after execute. Also a branch misprediction can be detected out-of-order. Therefore, a corrected branch might not end up beeing committed in case an even earlier branch was mispredicted (Count)
system.cpu.branchPred.earlyResteers_0::NoBranch            0                       # Number of branches that got redirected after decode. (Count)
system.cpu.branchPred.earlyResteers_0::Return            0                       # Number of branches that got redirected after decode. (Count)
system.cpu.branchPred.earlyResteers_0::CallDirect            0                       # Number of branches that got redirected after decode. (Count)
system.cpu.branchPred.earlyResteers_0::CallIndirect            0                       # Number of branches that got redirected after decode. (Count)
system.cpu.branchPred.earlyResteers_0::DirectCond            0                       # Number of branches that got redirected after decode. (Count)
system.cpu.branchPred.earlyResteers_0::DirectUncond            0                       # Number of branches that got redirected after decode. (Count)
system.cpu.branchPred.earlyResteers_0::IndirectCond            0                       # Number of branches that got redirected after decode. (Count)
system.cpu.branchPred.earlyResteers_0::IndirectUncond            0                       # Number of branches that got redirected after decode. (Count)
system.cpu.branchPred.earlyResteers_0::total            0                       # Number of branches that got redirected after decode. (Count)
system.cpu.branchPred.committed_0::NoBranch          260      0.00%      0.00% # Number of branches finally committed  (Count)
system.cpu.branchPred.committed_0::Return       320511      1.85%      1.85% # Number of branches finally committed  (Count)
system.cpu.branchPred.committed_0::CallDirect       319912      1.84%      3.69% # Number of branches finally committed  (Count)
system.cpu.branchPred.committed_0::CallIndirect          604      0.00%      3.70% # Number of branches finally committed  (Count)
system.cpu.branchPred.committed_0::DirectCond     15793505     91.04%     94.74% # Number of branches finally committed  (Count)
system.cpu.branchPred.committed_0::DirectUncond       907476      5.23%     99.97% # Number of branches finally committed  (Count)
system.cpu.branchPred.committed_0::IndirectCond            0      0.00%     99.97% # Number of branches finally committed  (Count)
system.cpu.branchPred.committed_0::IndirectUncond         5368      0.03%    100.00% # Number of branches finally committed  (Count)
system.cpu.branchPred.committed_0::total     17347636                       # Number of branches finally committed  (Count)
system.cpu.branchPred.mispredicted_0::NoBranch          260      0.04%      0.04% # Number of committed branches that were mispredicted. (Count)
system.cpu.branchPred.mispredicted_0::Return            0      0.00%      0.04% # Number of committed branches that were mispredicted. (Count)
system.cpu.branchPred.mispredicted_0::CallDirect          577      0.09%      0.14% # Number of committed branches that were mispredicted. (Count)
system.cpu.branchPred.mispredicted_0::CallIndirect          210      0.03%      0.17% # Number of committed branches that were mispredicted. (Count)
system.cpu.branchPred.mispredicted_0::DirectCond       607426     99.58%     99.75% # Number of committed branches that were mispredicted. (Count)
system.cpu.branchPred.mispredicted_0::DirectUncond          367      0.06%     99.81% # Number of committed branches that were mispredicted. (Count)
system.cpu.branchPred.mispredicted_0::IndirectCond            0      0.00%     99.81% # Number of committed branches that were mispredicted. (Count)
system.cpu.branchPred.mispredicted_0::IndirectUncond         1143      0.19%    100.00% # Number of committed branches that were mispredicted. (Count)
system.cpu.branchPred.mispredicted_0::total       609983                       # Number of committed branches that were mispredicted. (Count)
system.cpu.branchPred.targetProvider_0::NoTarget      6105300     33.03%     33.03% # The component providing the target for taken branches (Count)
system.cpu.branchPred.targetProvider_0::BTB     12051812     65.20%     98.23% # The component providing the target for taken branches (Count)
system.cpu.branchPred.targetProvider_0::RAS       321460      1.74%     99.97% # The component providing the target for taken branches (Count)
system.cpu.branchPred.targetProvider_0::Indirect         4937      0.03%    100.00% # The component providing the target for taken branches (Count)
system.cpu.branchPred.targetProvider_0::total     18483509                       # The component providing the target for taken branches (Count)
system.cpu.branchPred.targetWrong_0::NoBranch       214416     33.65%     33.65% # Number of branches where the target was incorrect or not available at prediction time. (Count)
system.cpu.branchPred.targetWrong_0::Return       422613     66.33%     99.98% # Number of branches where the target was incorrect or not available at prediction time. (Count)
system.cpu.branchPred.targetWrong_0::CallDirect            3      0.00%     99.98% # Number of branches where the target was incorrect or not available at prediction time. (Count)
system.cpu.branchPred.targetWrong_0::CallIndirect          144      0.02%    100.00% # Number of branches where the target was incorrect or not available at prediction time. (Count)
system.cpu.branchPred.targetWrong_0::DirectCond            0      0.00%    100.00% # Number of branches where the target was incorrect or not available at prediction time. (Count)
system.cpu.branchPred.targetWrong_0::DirectUncond            0      0.00%    100.00% # Number of branches where the target was incorrect or not available at prediction time. (Count)
system.cpu.branchPred.targetWrong_0::IndirectCond            0      0.00%    100.00% # Number of branches where the target was incorrect or not available at prediction time. (Count)
system.cpu.branchPred.targetWrong_0::IndirectUncond            0      0.00%    100.00% # Number of branches where the target was incorrect or not available at prediction time. (Count)
system.cpu.branchPred.targetWrong_0::total       637176                       # Number of branches where the target was incorrect or not available at prediction time. (Count)
system.cpu.branchPred.condPredicted          16832885                       # Number of conditional branches predicted (Count)
system.cpu.branchPred.condPredictedTaken     10738190                       # Number of conditional branches predicted as taken (Count)
system.cpu.branchPred.condIncorrect            639325                       # Number of conditional branches incorrect (Count)
system.cpu.branchPred.predTakenBTBMiss           1780                       # Number of branches predicted taken but missed in BTB (Count)
system.cpu.branchPred.NotTakenMispredicted       216050                       # Number branches predicted 'not taken' but turned out to be taken (Count)
system.cpu.branchPred.TakenMispredicted        423275                       # Number branches predicted taken but are actually not taken (Count)
system.cpu.branchPred.BTBLookups             18483509                       # Number of BTB lookups (Count)
system.cpu.branchPred.BTBUpdates               214263                       # Number of BTB updates (Count)
system.cpu.branchPred.BTBHits                15261795                       # Number of BTB hits (Count)
system.cpu.branchPred.BTBHitRatio            0.825698                       # BTB Hit Ratio (Ratio)
system.cpu.branchPred.BTBMispredicted            2653                       # Number BTB mispredictions. No target found or target wrong (Count)
system.cpu.branchPred.indirectLookups           10655                       # Number of indirect predictor lookups. (Count)
system.cpu.branchPred.indirectHits               4937                       # Number of indirect target hits. (Count)
system.cpu.branchPred.indirectMisses             5718                       # Number of indirect misses. (Count)
system.cpu.branchPred.indirectMispredicted            0                       # Number of mispredicted indirect branches. (Count)
system.cpu.branchPred.btb.lookups::NoBranch         1943      0.01%      0.01% # Number of BTB lookups (Count)
system.cpu.branchPred.btb.lookups::Return       321460      1.74%      1.75% # Number of BTB lookups (Count)
system.cpu.branchPred.btb.lookups::CallDirect       358500      1.94%      3.69% # Number of BTB lookups (Count)
system.cpu.branchPred.btb.lookups::CallIndirect         1113      0.01%      3.70% # Number of BTB lookups (Count)
system.cpu.branchPred.btb.lookups::DirectCond     16830942     91.06%     94.75% # Number of BTB lookups (Count)
system.cpu.branchPred.btb.lookups::DirectUncond       960009      5.19%     99.95% # Number of BTB lookups (Count)
system.cpu.branchPred.btb.lookups::IndirectCond            0      0.00%     99.95% # Number of BTB lookups (Count)
system.cpu.branchPred.btb.lookups::IndirectUncond         9542      0.05%    100.00% # Number of BTB lookups (Count)
system.cpu.branchPred.btb.lookups::total     18483509                       # Number of BTB lookups (Count)
system.cpu.branchPred.btb.misses::NoBranch          320      0.01%      0.01% # Number of BTB misses (Count)
system.cpu.branchPred.btb.misses::Return       321460      9.98%      9.99% # Number of BTB misses (Count)
system.cpu.branchPred.btb.misses::CallDirect         1178      0.04%     10.02% # Number of BTB misses (Count)
system.cpu.branchPred.btb.misses::CallIndirect         1112      0.03%     10.06% # Number of BTB misses (Count)
system.cpu.branchPred.btb.misses::DirectCond      2887281     89.62%     99.68% # Number of BTB misses (Count)
system.cpu.branchPred.btb.misses::DirectUncond          821      0.03%     99.70% # Number of BTB misses (Count)
system.cpu.branchPred.btb.misses::IndirectCond            0      0.00%     99.70% # Number of BTB misses (Count)
system.cpu.branchPred.btb.misses::IndirectUncond         9542      0.30%    100.00% # Number of BTB misses (Count)
system.cpu.branchPred.btb.misses::total       3221714                       # Number of BTB misses (Count)
system.cpu.branchPred.btb.updates::NoBranch            0      0.00%      0.00% # Number of BTB updates (Count)
system.cpu.branchPred.btb.updates::Return            0      0.00%      0.00% # Number of BTB updates (Count)
system.cpu.branchPred.btb.updates::CallDirect          811      0.38%      0.38% # Number of BTB updates (Count)
system.cpu.branchPred.btb.updates::CallIndirect            0      0.00%      0.38% # Number of BTB updates (Count)
system.cpu.branchPred.btb.updates::DirectCond       212836     99.33%     99.71% # Number of BTB updates (Count)
system.cpu.branchPred.btb.updates::DirectUncond          616      0.29%    100.00% # Number of BTB updates (Count)
system.cpu.branchPred.btb.updates::IndirectCond            0      0.00%    100.00% # Number of BTB updates (Count)
system.cpu.branchPred.btb.updates::IndirectUncond            0      0.00%    100.00% # Number of BTB updates (Count)
system.cpu.branchPred.btb.updates::total       214263                       # Number of BTB updates (Count)
system.cpu.branchPred.btb.mispredict::NoBranch            0      0.00%      0.00% # Number of BTB mispredictions. No target found or target wrong. (Count)
system.cpu.branchPred.btb.mispredict::Return            0      0.00%      0.00% # Number of BTB mispredictions. No target found or target wrong. (Count)
system.cpu.branchPred.btb.mispredict::CallDirect          811      0.38%      0.38% # Number of BTB mispredictions. No target found or target wrong. (Count)
system.cpu.branchPred.btb.mispredict::CallIndirect            0      0.00%      0.38% # Number of BTB mispredictions. No target found or target wrong. (Count)
system.cpu.branchPred.btb.mispredict::DirectCond       212836     99.33%     99.71% # Number of BTB mispredictions. No target found or target wrong. (Count)
system.cpu.branchPred.btb.mispredict::DirectUncond          616      0.29%    100.00% # Number of BTB mispredictions. No target found or target wrong. (Count)
system.cpu.branchPred.btb.mispredict::IndirectCond            0      0.00%    100.00% # Number of BTB mispredictions. No target found or target wrong. (Count)
system.cpu.branchPred.btb.mispredict::IndirectUncond            0      0.00%    100.00% # Number of BTB mispredictions. No target found or target wrong. (Count)
system.cpu.branchPred.btb.mispredict::total       214263                       # Number of BTB mispredictions. No target found or target wrong. (Count)
system.cpu.branchPred.btb.power_state.pwrStateResidencyTicks::UNDEFINED 2871512477060                       # Cumulative time (in ticks) in various power states (Tick)
system.cpu.branchPred.indirectBranchPred.lookups        10655                       # Number of lookups (Count)
system.cpu.branchPred.indirectBranchPred.hits         4937                       # Number of hits of a tag (Count)
system.cpu.branchPred.indirectBranchPred.misses         5718                       # Number of misses (Count)
system.cpu.branchPred.indirectBranchPred.targetRecords         1390                       # Number of targets that where recorded/installed in the cache (Count)
system.cpu.branchPred.indirectBranchPred.indirectRecords        12045                       # Number of indirect branches/calls recorded in the indirect hist (Count)
system.cpu.branchPred.indirectBranchPred.speculativeOverflows            0                       # Number of times more than the allowed capacity for speculative branches/calls where in flight and destroy the path history (Count)
system.cpu.branchPred.ras.pushes               360561                       # Number of times a PC was pushed onto the RAS (Count)
system.cpu.branchPred.ras.pops                 360557                       # Number of times a PC was poped from the RAS (Count)
system.cpu.branchPred.ras.squashes              40045                       # Number of times the stack operation was squashed due to wrong speculation. (Count)
system.cpu.branchPred.ras.used                 320511                       # Number of times the RAS is the provider (Count)
system.cpu.branchPred.ras.correct              320511                       # Number of times the RAS is the provider and the prediction is correct (Count)
system.cpu.branchPred.ras.incorrect                 0                       # Number of times the RAS is the provider and the prediction is wrong (Count)
system.cpu.commit.commitSquashedInsts         8878448                       # The number of squashed insts skipped by commit (Count)
system.cpu.commit.commitNonSpecStalls            2242                       # The number of times commit has been forced to stall to communicate backwards (Count)
system.cpu.commit.branchMispredicts            638183                       # The number of times a branch was mispredicted (Count)
system.cpu.commit.numCommittedDist::samples    211611980                       # Number of insts commited each cycle (Count)
system.cpu.commit.numCommittedDist::mean     0.738829                       # Number of insts commited each cycle (Count)
system.cpu.commit.numCommittedDist::stdev     1.735343                       # Number of insts commited each cycle (Count)
system.cpu.commit.numCommittedDist::underflows            0      0.00%      0.00% # Number of insts commited each cycle (Count)
system.cpu.commit.numCommittedDist::0       158073408     74.70%     74.70% # Number of insts commited each cycle (Count)
system.cpu.commit.numCommittedDist::1        21292172     10.06%     84.76% # Number of insts commited each cycle (Count)
system.cpu.commit.numCommittedDist::2         8245018      3.90%     88.66% # Number of insts commited each cycle (Count)
system.cpu.commit.numCommittedDist::3        10860115      5.13%     93.79% # Number of insts commited each cycle (Count)
system.cpu.commit.numCommittedDist::4         3142097      1.48%     95.27% # Number of insts commited each cycle (Count)
system.cpu.commit.numCommittedDist::5         1258779      0.59%     95.87% # Number of insts commited each cycle (Count)
system.cpu.commit.numCommittedDist::6          832306      0.39%     96.26% # Number of insts commited each cycle (Count)
system.cpu.commit.numCommittedDist::7         1138194      0.54%     96.80% # Number of insts commited each cycle (Count)
system.cpu.commit.numCommittedDist::8         6769891      3.20%    100.00% # Number of insts commited each cycle (Count)
system.cpu.commit.numCommittedDist::overflows            0      0.00%    100.00% # Number of insts commited each cycle (Count)
system.cpu.commit.numCommittedDist::min_value            0                       # Number of insts commited each cycle (Count)
system.cpu.commit.numCommittedDist::max_value            8                       # Number of insts commited each cycle (Count)
system.cpu.commit.numCommittedDist::total    211611980                       # Number of insts commited each cycle (Count)
system.cpu.commit.amos                              0                       # Number of atomic instructions committed (Count)
system.cpu.commit.membars                        1026                       # Number of memory barriers committed (Count)
system.cpu.commit.functionCalls                320516                       # Number of function calls committed. (Count)
system.cpu.commit.committedInstType_0::No_OpClass       469665      0.30%      0.30% # Class of committed instruction (Count)
system.cpu.commit.committedInstType_0::IntAlu    126434293     80.87%     81.17% # Class of committed instruction (Count)
system.cpu.commit.committedInstType_0::IntMult          124      0.00%     81.17% # Class of committed instruction (Count)
system.cpu.commit.committedInstType_0::IntDiv        38944      0.02%     81.19% # Class of committed instruction (Count)
system.cpu.commit.committedInstType_0::FloatAdd         7950      0.01%     81.20% # Class of committed instruction (Count)
system.cpu.commit.committedInstType_0::FloatCmp            0      0.00%     81.20% # Class of committed instruction (Count)
system.cpu.commit.committedInstType_0::FloatCvt         1232      0.00%     81.20% # Class of committed instruction (Count)
system.cpu.commit.committedInstType_0::FloatMult            0      0.00%     81.20% # Class of committed instruction (Count)
system.cpu.commit.committedInstType_0::FloatMultAcc            0      0.00%     81.20% # Class of committed instruction (Count)
system.cpu.commit.committedInstType_0::FloatDiv            0      0.00%     81.20% # Class of committed instruction (Count)
system.cpu.commit.committedInstType_0::FloatMisc            0      0.00%     81.20% # Class of committed instruction (Count)
system.cpu.commit.committedInstType_0::FloatSqrt            0      0.00%     81.20% # Class of committed instruction (Count)
system.cpu.commit.committedInstType_0::SimdAdd        14748      0.01%     81.21% # Class of committed instruction (Count)
system.cpu.commit.committedInstType_0::SimdAddAcc            0      0.00%     81.21% # Class of committed instruction (Count)
system.cpu.commit.committedInstType_0::SimdAlu       304600      0.19%     81.40% # Class of committed instruction (Count)
system.cpu.commit.committedInstType_0::SimdCmp           42      0.00%     81.40% # Class of committed instruction (Count)
system.cpu.commit.committedInstType_0::SimdCvt        13750      0.01%     81.41% # Class of committed instruction (Count)
system.cpu.commit.committedInstType_0::SimdMisc        14595      0.01%     81.42% # Class of committed instruction (Count)
system.cpu.commit.committedInstType_0::SimdMult            0      0.00%     81.42% # Class of committed instruction (Count)
system.cpu.commit.committedInstType_0::SimdMultAcc            0      0.00%     81.42% # Class of committed instruction (Count)
system.cpu.commit.committedInstType_0::SimdMatMultAcc            0      0.00%     81.42% # Class of committed instruction (Count)
system.cpu.commit.committedInstType_0::SimdShift         1820      0.00%     81.42% # Class of committed instruction (Count)
system.cpu.commit.committedInstType_0::SimdShiftAcc            0      0.00%     81.42% # Class of committed instruction (Count)
system.cpu.commit.committedInstType_0::SimdDiv            0      0.00%     81.42% # Class of committed instruction (Count)
system.cpu.commit.committedInstType_0::SimdSqrt            0      0.00%     81.42% # Class of committed instruction (Count)
system.cpu.commit.committedInstType_0::SimdFloatAdd           13      0.00%     81.42% # Class of committed instruction (Count)
system.cpu.commit.committedInstType_0::SimdFloatAlu            0      0.00%     81.42% # Class of committed instruction (Count)
system.cpu.commit.committedInstType_0::SimdFloatCmp            0      0.00%     81.42% # Class of committed instruction (Count)
system.cpu.commit.committedInstType_0::SimdFloatCvt           26      0.00%     81.42% # Class of committed instruction (Count)
system.cpu.commit.committedInstType_0::SimdFloatDiv           13      0.00%     81.42% # Class of committed instruction (Count)
system.cpu.commit.committedInstType_0::SimdFloatMisc            0      0.00%     81.42% # Class of committed instruction (Count)
system.cpu.commit.committedInstType_0::SimdFloatMult            0      0.00%     81.42% # Class of committed instruction (Count)
system.cpu.commit.committedInstType_0::SimdFloatMultAcc            0      0.00%     81.42% # Class of committed instruction (Count)
system.cpu.commit.committedInstType_0::SimdFloatMatMultAcc            0      0.00%     81.42% # Class of committed instruction (Count)
system.cpu.commit.committedInstType_0::SimdFloatSqrt            0      0.00%     81.42% # Class of committed instruction (Count)
system.cpu.commit.committedInstType_0::SimdReduceAdd            0      0.00%     81.42% # Class of committed instruction (Count)
system.cpu.commit.committedInstType_0::SimdReduceAlu            0      0.00%     81.42% # Class of committed instruction (Count)
system.cpu.commit.committedInstType_0::SimdReduceCmp            0      0.00%     81.42% # Class of committed instruction (Count)
system.cpu.commit.committedInstType_0::SimdFloatReduceAdd            0      0.00%     81.42% # Class of committed instruction (Count)
system.cpu.commit.committedInstType_0::SimdFloatReduceCmp            0      0.00%     81.42% # Class of committed instruction (Count)
system.cpu.commit.committedInstType_0::SimdAes            0      0.00%     81.42% # Class of committed instruction (Count)
system.cpu.commit.committedInstType_0::SimdAesMix            0      0.00%     81.42% # Class of committed instruction (Count)
system.cpu.commit.committedInstType_0::SimdSha1Hash            0      0.00%     81.42% # Class of committed instruction (Count)
system.cpu.commit.committedInstType_0::SimdSha1Hash2            0      0.00%     81.42% # Class of committed instruction (Count)
system.cpu.commit.committedInstType_0::SimdSha256Hash            0      0.00%     81.42% # Class of committed instruction (Count)
system.cpu.commit.committedInstType_0::SimdSha256Hash2            0      0.00%     81.42% # Class of committed instruction (Count)
system.cpu.commit.committedInstType_0::SimdShaSigma2            0      0.00%     81.42% # Class of committed instruction (Count)
system.cpu.commit.committedInstType_0::SimdShaSigma3            0      0.00%     81.42% # Class of committed instruction (Count)
system.cpu.commit.committedInstType_0::SimdPredAlu            0      0.00%     81.42% # Class of committed instruction (Count)
system.cpu.commit.committedInstType_0::Matrix            0      0.00%     81.42% # Class of committed instruction (Count)
system.cpu.commit.committedInstType_0::MatrixMov            0      0.00%     81.42% # Class of committed instruction (Count)
system.cpu.commit.committedInstType_0::MatrixOP            0      0.00%     81.42% # Class of committed instruction (Count)
system.cpu.commit.committedInstType_0::MemRead     23888746     15.28%     96.70% # Class of committed instruction (Count)
system.cpu.commit.committedInstType_0::MemWrite      4026661      2.58%     99.28% # Class of committed instruction (Count)
system.cpu.commit.committedInstType_0::FloatMemRead       325094      0.21%     99.49% # Class of committed instruction (Count)
system.cpu.commit.committedInstType_0::FloatMemWrite       802842      0.51%    100.00% # Class of committed instruction (Count)
system.cpu.commit.committedInstType_0::IprAccess            0      0.00%    100.00% # Class of committed instruction (Count)
system.cpu.commit.committedInstType_0::InstPrefetch            0      0.00%    100.00% # Class of committed instruction (Count)
system.cpu.commit.committedInstType_0::SimdUnitStrideLoad            0      0.00%    100.00% # Class of committed instruction (Count)
system.cpu.commit.committedInstType_0::SimdUnitStrideStore            0      0.00%    100.00% # Class of committed instruction (Count)
system.cpu.commit.committedInstType_0::SimdUnitStrideMaskLoad            0      0.00%    100.00% # Class of committed instruction (Count)
system.cpu.commit.committedInstType_0::SimdUnitStrideMaskStore            0      0.00%    100.00% # Class of committed instruction (Count)
system.cpu.commit.committedInstType_0::SimdStridedLoad            0      0.00%    100.00% # Class of committed instruction (Count)
system.cpu.commit.committedInstType_0::SimdStridedStore            0      0.00%    100.00% # Class of committed instruction (Count)
system.cpu.commit.committedInstType_0::SimdIndexedLoad            0      0.00%    100.00% # Class of committed instruction (Count)
system.cpu.commit.committedInstType_0::SimdIndexedStore            0      0.00%    100.00% # Class of committed instruction (Count)
system.cpu.commit.committedInstType_0::SimdWholeRegisterLoad            0      0.00%    100.00% # Class of committed instruction (Count)
system.cpu.commit.committedInstType_0::SimdWholeRegisterStore            0      0.00%    100.00% # Class of committed instruction (Count)
system.cpu.commit.committedInstType_0::SimdUnitStrideFaultOnlyFirstLoad            0      0.00%    100.00% # Class of committed instruction (Count)
system.cpu.commit.committedInstType_0::SimdUnitStrideSegmentedLoad            0      0.00%    100.00% # Class of committed instruction (Count)
system.cpu.commit.committedInstType_0::SimdUnitStrideSegmentedStore            0      0.00%    100.00% # Class of committed instruction (Count)
system.cpu.commit.committedInstType_0::SimdExt            0      0.00%    100.00% # Class of committed instruction (Count)
system.cpu.commit.committedInstType_0::SimdFloatExt            0      0.00%    100.00% # Class of committed instruction (Count)
system.cpu.commit.committedInstType_0::SimdConfig            0      0.00%    100.00% # Class of committed instruction (Count)
system.cpu.commit.committedInstType_0::total    156345158                       # Class of committed instruction (Count)
system.cpu.commit.commitEligibleSamples       6769891                       # number cycles where commit BW limit reached (Cycle)
system.cpu.commitStats0.numInsts             85139557                       # Number of instructions committed (thread level) (Count)
system.cpu.commitStats0.numOps              156345158                       # Number of ops (including micro ops) committed (thread level) (Count)
system.cpu.commitStats0.numInstsNotNOP       85139557                       # Number of instructions committed excluding NOPs or prefetches (Count)
system.cpu.commitStats0.numOpsNotNOP        156345158                       # Number of Ops (including micro ops) Simulated (Count)
system.cpu.commitStats0.cpi                  2.529598                       # CPI: cycles per instruction (thread level) ((Cycle/Count))
system.cpu.commitStats0.ipc                  0.395320                       # IPC: instructions per cycle (thread level) ((Count/Cycle))
system.cpu.commitStats0.numMemRefs           29043343                       # Number of memory references committed (Count)
system.cpu.commitStats0.numFpInsts            1490974                       # Number of float instructions (Count)
system.cpu.commitStats0.numIntInsts         155514844                       # Number of integer instructions (Count)
system.cpu.commitStats0.numLoadInsts         24213840                       # Number of load instructions (Count)
system.cpu.commitStats0.numStoreInsts         4829503                       # Number of store instructions (Count)
system.cpu.commitStats0.numVecInsts                 0                       # Number of vector instructions (Count)
system.cpu.commitStats0.committedInstType::No_OpClass       469665      0.30%      0.30% # Class of committed instruction. (Count)
system.cpu.commitStats0.committedInstType::IntAlu    126434293     80.87%     81.17% # Class of committed instruction. (Count)
system.cpu.commitStats0.committedInstType::IntMult          124      0.00%     81.17% # Class of committed instruction. (Count)
system.cpu.commitStats0.committedInstType::IntDiv        38944      0.02%     81.19% # Class of committed instruction. (Count)
system.cpu.commitStats0.committedInstType::FloatAdd         7950      0.01%     81.20% # Class of committed instruction. (Count)
system.cpu.commitStats0.committedInstType::FloatCmp            0      0.00%     81.20% # Class of committed instruction. (Count)
system.cpu.commitStats0.committedInstType::FloatCvt         1232      0.00%     81.20% # Class of committed instruction. (Count)
system.cpu.commitStats0.committedInstType::FloatMult            0      0.00%     81.20% # Class of committed instruction. (Count)
system.cpu.commitStats0.committedInstType::FloatMultAcc            0      0.00%     81.20% # Class of committed instruction. (Count)
system.cpu.commitStats0.committedInstType::FloatDiv            0      0.00%     81.20% # Class of committed instruction. (Count)
system.cpu.commitStats0.committedInstType::FloatMisc            0      0.00%     81.20% # Class of committed instruction. (Count)
system.cpu.commitStats0.committedInstType::FloatSqrt            0      0.00%     81.20% # Class of committed instruction. (Count)
system.cpu.commitStats0.committedInstType::SimdAdd        14748      0.01%     81.21% # Class of committed instruction. (Count)
system.cpu.commitStats0.committedInstType::SimdAddAcc            0      0.00%     81.21% # Class of committed instruction. (Count)
system.cpu.commitStats0.committedInstType::SimdAlu       304600      0.19%     81.40% # Class of committed instruction. (Count)
system.cpu.commitStats0.committedInstType::SimdCmp           42      0.00%     81.40% # Class of committed instruction. (Count)
system.cpu.commitStats0.committedInstType::SimdCvt        13750      0.01%     81.41% # Class of committed instruction. (Count)
system.cpu.commitStats0.committedInstType::SimdMisc        14595      0.01%     81.42% # Class of committed instruction. (Count)
system.cpu.commitStats0.committedInstType::SimdMult            0      0.00%     81.42% # Class of committed instruction. (Count)
system.cpu.commitStats0.committedInstType::SimdMultAcc            0      0.00%     81.42% # Class of committed instruction. (Count)
system.cpu.commitStats0.committedInstType::SimdMatMultAcc            0      0.00%     81.42% # Class of committed instruction. (Count)
system.cpu.commitStats0.committedInstType::SimdShift         1820      0.00%     81.42% # Class of committed instruction. (Count)
system.cpu.commitStats0.committedInstType::SimdShiftAcc            0      0.00%     81.42% # Class of committed instruction. (Count)
system.cpu.commitStats0.committedInstType::SimdDiv            0      0.00%     81.42% # Class of committed instruction. (Count)
system.cpu.commitStats0.committedInstType::SimdSqrt            0      0.00%     81.42% # Class of committed instruction. (Count)
system.cpu.commitStats0.committedInstType::SimdFloatAdd           13      0.00%     81.42% # Class of committed instruction. (Count)
system.cpu.commitStats0.committedInstType::SimdFloatAlu            0      0.00%     81.42% # Class of committed instruction. (Count)
system.cpu.commitStats0.committedInstType::SimdFloatCmp            0      0.00%     81.42% # Class of committed instruction. (Count)
system.cpu.commitStats0.committedInstType::SimdFloatCvt           26      0.00%     81.42% # Class of committed instruction. (Count)
system.cpu.commitStats0.committedInstType::SimdFloatDiv           13      0.00%     81.42% # Class of committed instruction. (Count)
system.cpu.commitStats0.committedInstType::SimdFloatMisc            0      0.00%     81.42% # Class of committed instruction. (Count)
system.cpu.commitStats0.committedInstType::SimdFloatMult            0      0.00%     81.42% # Class of committed instruction. (Count)
system.cpu.commitStats0.committedInstType::SimdFloatMultAcc            0      0.00%     81.42% # Class of committed instruction. (Count)
system.cpu.commitStats0.committedInstType::SimdFloatMatMultAcc            0      0.00%     81.42% # Class of committed instruction. (Count)
system.cpu.commitStats0.committedInstType::SimdFloatSqrt            0      0.00%     81.42% # Class of committed instruction. (Count)
system.cpu.commitStats0.committedInstType::SimdReduceAdd            0      0.00%     81.42% # Class of committed instruction. (Count)
system.cpu.commitStats0.committedInstType::SimdReduceAlu            0      0.00%     81.42% # Class of committed instruction. (Count)
system.cpu.commitStats0.committedInstType::SimdReduceCmp            0      0.00%     81.42% # Class of committed instruction. (Count)
system.cpu.commitStats0.committedInstType::SimdFloatReduceAdd            0      0.00%     81.42% # Class of committed instruction. (Count)
system.cpu.commitStats0.committedInstType::SimdFloatReduceCmp            0      0.00%     81.42% # Class of committed instruction. (Count)
system.cpu.commitStats0.committedInstType::SimdAes            0      0.00%     81.42% # Class of committed instruction. (Count)
system.cpu.commitStats0.committedInstType::SimdAesMix            0      0.00%     81.42% # Class of committed instruction. (Count)
system.cpu.commitStats0.committedInstType::SimdSha1Hash            0      0.00%     81.42% # Class of committed instruction. (Count)
system.cpu.commitStats0.committedInstType::SimdSha1Hash2            0      0.00%     81.42% # Class of committed instruction. (Count)
system.cpu.commitStats0.committedInstType::SimdSha256Hash            0      0.00%     81.42% # Class of committed instruction. (Count)
system.cpu.commitStats0.committedInstType::SimdSha256Hash2            0      0.00%     81.42% # Class of committed instruction. (Count)
system.cpu.commitStats0.committedInstType::SimdShaSigma2            0      0.00%     81.42% # Class of committed instruction. (Count)
system.cpu.commitStats0.committedInstType::SimdShaSigma3            0      0.00%     81.42% # Class of committed instruction. (Count)
system.cpu.commitStats0.committedInstType::SimdPredAlu            0      0.00%     81.42% # Class of committed instruction. (Count)
system.cpu.commitStats0.committedInstType::Matrix            0      0.00%     81.42% # Class of committed instruction. (Count)
system.cpu.commitStats0.committedInstType::MatrixMov            0      0.00%     81.42% # Class of committed instruction. (Count)
system.cpu.commitStats0.committedInstType::MatrixOP            0      0.00%     81.42% # Class of committed instruction. (Count)
system.cpu.commitStats0.committedInstType::MemRead     23888746     15.28%     96.70% # Class of committed instruction. (Count)
system.cpu.commitStats0.committedInstType::MemWrite      4026661      2.58%     99.28% # Class of committed instruction. (Count)
system.cpu.commitStats0.committedInstType::FloatMemRead       325094      0.21%     99.49% # Class of committed instruction. (Count)
system.cpu.commitStats0.committedInstType::FloatMemWrite       802842      0.51%    100.00% # Class of committed instruction. (Count)
system.cpu.commitStats0.committedInstType::IprAccess            0      0.00%    100.00% # Class of committed instruction. (Count)
system.cpu.commitStats0.committedInstType::InstPrefetch            0      0.00%    100.00% # Class of committed instruction. (Count)
system.cpu.commitStats0.committedInstType::SimdUnitStrideLoad            0      0.00%    100.00% # Class of committed instruction. (Count)
system.cpu.commitStats0.committedInstType::SimdUnitStrideStore            0      0.00%    100.00% # Class of committed instruction. (Count)
system.cpu.commitStats0.committedInstType::SimdUnitStrideMaskLoad            0      0.00%    100.00% # Class of committed instruction. (Count)
system.cpu.commitStats0.committedInstType::SimdUnitStrideMaskStore            0      0.00%    100.00% # Class of committed instruction. (Count)
system.cpu.commitStats0.committedInstType::SimdStridedLoad            0      0.00%    100.00% # Class of committed instruction. (Count)
system.cpu.commitStats0.committedInstType::SimdStridedStore            0      0.00%    100.00% # Class of committed instruction. (Count)
system.cpu.commitStats0.committedInstType::SimdIndexedLoad            0      0.00%    100.00% # Class of committed instruction. (Count)
system.cpu.commitStats0.committedInstType::SimdIndexedStore            0      0.00%    100.00% # Class of committed instruction. (Count)
system.cpu.commitStats0.committedInstType::SimdWholeRegisterLoad            0      0.00%    100.00% # Class of committed instruction. (Count)
system.cpu.commitStats0.committedInstType::SimdWholeRegisterStore            0      0.00%    100.00% # Class of committed instruction. (Count)
system.cpu.commitStats0.committedInstType::SimdUnitStrideFaultOnlyFirstLoad            0      0.00%    100.00% # Class of committed instruction. (Count)
system.cpu.commitStats0.committedInstType::SimdUnitStrideSegmentedLoad            0      0.00%    100.00% # Class of committed instruction. (Count)
system.cpu.commitStats0.committedInstType::SimdUnitStrideSegmentedStore            0      0.00%    100.00% # Class of committed instruction. (Count)
system.cpu.commitStats0.committedInstType::SimdExt            0      0.00%    100.00% # Class of committed instruction. (Count)
system.cpu.commitStats0.committedInstType::SimdFloatExt            0      0.00%    100.00% # Class of committed instruction. (Count)
system.cpu.commitStats0.committedInstType::SimdConfig            0      0.00%    100.00% # Class of committed instruction. (Count)
system.cpu.commitStats0.committedInstType::total    156345158                       # Class of committed instruction. (Count)
system.cpu.commitStats0.committedControl::IsControl     17347636                       # Class of control type instructions committed (Count)
system.cpu.commitStats0.committedControl::IsDirectControl     17020893                       # Class of control type instructions committed (Count)
system.cpu.commitStats0.committedControl::IsIndirectControl       326483                       # Class of control type instructions committed (Count)
system.cpu.commitStats0.committedControl::IsCondControl     15793505                       # Class of control type instructions committed (Count)
system.cpu.commitStats0.committedControl::IsUncondControl      1553871                       # Class of control type instructions committed (Count)
system.cpu.commitStats0.committedControl::IsCall       320516                       # Class of control type instructions committed (Count)
system.cpu.commitStats0.committedControl::IsReturn       320511                       # Class of control type instructions committed (Count)
system.cpu.decode.idleCycles                179124449                       # Number of cycles decode is idle (Cycle)
system.cpu.decode.blockedCycles               3683382                       # Number of cycles decode is blocked (Cycle)
system.cpu.decode.runCycles                  29473316                       # Number of cycles decode is running (Cycle)
system.cpu.decode.unblockCycles                221470                       # Number of cycles decode is unblocking (Cycle)
system.cpu.decode.squashCycles                 639932                       # Number of cycles decode is squashing (Cycle)
system.cpu.decode.branchResolved             12034395                       # Number of times decode resolved a branch (Count)
system.cpu.decode.branchMispred                  1677                       # Number of times decode detected a branch misprediction (Count)
system.cpu.decode.decodedInsts              165466898                       # Number of instructions handled by decode (Count)
system.cpu.decode.squashedInsts                  8464                       # Number of squashed instructions handled by decode (Count)
system.cpu.executeStats0.numInsts           170210126                       # Number of executed instructions (Count)
system.cpu.executeStats0.numNop                     0                       # Number of nop insts executed (Count)
system.cpu.executeStats0.numBranches         17950504                       # Number of branches executed (Count)
system.cpu.executeStats0.numLoadInsts        32378651                       # Number of load instructions executed (Count)
system.cpu.executeStats0.numStoreInsts        5022068                       # Number of stores executed (Count)
system.cpu.executeStats0.instRate            0.790319                       # Inst execution rate ((Count/Cycle))
system.cpu.executeStats0.numCCRegReads       87739103                       # Number of times the CC registers were read (Count)
system.cpu.executeStats0.numCCRegWrites      63923626                       # Number of times the CC registers were written (Count)
system.cpu.executeStats0.numFpRegReads        1534473                       # Number of times the floating registers were read (Count)
system.cpu.executeStats0.numFpRegWrites        684199                       # Number of times the floating registers were written (Count)
system.cpu.executeStats0.numIntRegReads     200301508                       # Number of times the integer registers were read (Count)
system.cpu.executeStats0.numIntRegWrites    121819318                       # Number of times the integer registers were written (Count)
system.cpu.executeStats0.numMemRefs          37400719                       # Number of memory refs (Count)
system.cpu.executeStats0.numMiscRegReads     74024795                       # Number of times the Misc registers were read (Count)
system.cpu.executeStats0.numMiscRegWrites          693                       # Number of times the Misc registers were written (Count)
system.cpu.executeStats0.numVecAluAccesses            0                       # Number of vector alu accesses (Count)
system.cpu.executeStats0.numDiscardedOps            0                       # Number of ops (including micro ops) which were discarded before commit (Count)
system.cpu.fetch.predictedBranches           12378209                       # Number of branches that fetch has predicted taken (Count)
system.cpu.fetch.cycles                      32566813                       # Number of cycles fetch has run and was not squashing or blocked (Cycle)
system.cpu.fetch.squashCycles                 1283062                       # Number of cycles fetch has spent squashing (Cycle)
system.cpu.fetch.miscStallCycles                 3984                       # Number of cycles fetch has spent waiting on interrupts, or bad addresses, or out of MSHRs (Cycle)
system.cpu.fetch.pendingTrapStallCycles          4177                       # Number of stall cycles due to pending traps (Cycle)
system.cpu.fetch.icacheWaitRetryStallCycles         1771                       # Number of stall cycles due to full MSHR (Cycle)
[...]
system.mem_ctrl.dram.bwRead::cpu.data        24801486                       # Total read bandwidth from this memory ((Byte/Second))
system.mem_ctrl.dram.bwRead::total          294296879                       # Total read bandwidth from this memory ((Byte/Second))
system.mem_ctrl.dram.bwInstRead::cpu.inst    269495393                       # Instruction read bandwidth from this memory ((Byte/Second))
system.mem_ctrl.dram.bwInstRead::total      269495393                       # Instruction read bandwidth from this memory ((Byte/Second))
system.mem_ctrl.dram.bwWrite::cpu.data       35316293                       # Write bandwidth from this memory ((Byte/Second))
system.mem_ctrl.dram.bwWrite::total          35316293                       # Write bandwidth from this memory ((Byte/Second))
system.mem_ctrl.dram.bwTotal::cpu.inst      269495393                       # Total bandwidth to/from this memory ((Byte/Second))
system.mem_ctrl.dram.bwTotal::cpu.data       60117779                       # Total bandwidth to/from this memory ((Byte/Second))
system.mem_ctrl.dram.bwTotal::total         329613173                       # Total bandwidth to/from this memory ((Byte/Second))
system.mem_ctrl.dram.readBursts               3566696                       # Number of DRAM read bursts (Count)
system.mem_ctrl.dram.writeBursts                29287                       # Number of DRAM write bursts (Count)
system.mem_ctrl.dram.perBankRdBursts::0         29800                       # Per bank write bursts (Count)
system.mem_ctrl.dram.perBankRdBursts::1         45525                       # Per bank write bursts (Count)
system.mem_ctrl.dram.perBankRdBursts::2         27305                       # Per bank write bursts (Count)
system.mem_ctrl.dram.perBankRdBursts::3         27012                       # Per bank write bursts (Count)
system.mem_ctrl.dram.perBankRdBursts::4        107144                       # Per bank write bursts (Count)
system.mem_ctrl.dram.perBankRdBursts::5        529865                       # Per bank write bursts (Count)
system.mem_ctrl.dram.perBankRdBursts::6         35326                       # Per bank write bursts (Count)
system.mem_ctrl.dram.perBankRdBursts::7         35020                       # Per bank write bursts (Count)
system.mem_ctrl.dram.perBankRdBursts::8         35154                       # Per bank write bursts (Count)
system.mem_ctrl.dram.perBankRdBursts::9        326737                       # Per bank write bursts (Count)
system.mem_ctrl.dram.perBankRdBursts::10       120182                       # Per bank write bursts (Count)
system.mem_ctrl.dram.perBankRdBursts::11       139112                       # Per bank write bursts (Count)
system.mem_ctrl.dram.perBankRdBursts::12      1496825                       # Per bank write bursts (Count)
system.mem_ctrl.dram.perBankRdBursts::13       157537                       # Per bank write bursts (Count)
system.mem_ctrl.dram.perBankRdBursts::14       330866                       # Per bank write bursts (Count)
system.mem_ctrl.dram.perBankRdBursts::15       123286                       # Per bank write bursts (Count)
system.mem_ctrl.dram.perBankWrBursts::0          1234                       # Per bank write bursts (Count)
system.mem_ctrl.dram.perBankWrBursts::1          1342                       # Per bank write bursts (Count)
system.mem_ctrl.dram.perBankWrBursts::2          1317                       # Per bank write bursts (Count)
system.mem_ctrl.dram.perBankWrBursts::3          1228                       # Per bank write bursts (Count)
system.mem_ctrl.dram.perBankWrBursts::4          1003                       # Per bank write bursts (Count)
system.mem_ctrl.dram.perBankWrBursts::5           999                       # Per bank write bursts (Count)
system.mem_ctrl.dram.perBankWrBursts::6          1448                       # Per bank write bursts (Count)
system.mem_ctrl.dram.perBankWrBursts::7          1255                       # Per bank write bursts (Count)
system.mem_ctrl.dram.perBankWrBursts::8          1239                       # Per bank write bursts (Count)
system.mem_ctrl.dram.perBankWrBursts::9          1377                       # Per bank write bursts (Count)
system.mem_ctrl.dram.perBankWrBursts::10         1266                       # Per bank write bursts (Count)
system.mem_ctrl.dram.perBankWrBursts::11         1388                       # Per bank write bursts (Count)
system.mem_ctrl.dram.perBankWrBursts::12         7748                       # Per bank write bursts (Count)
system.mem_ctrl.dram.perBankWrBursts::13         1423                       # Per bank write bursts (Count)
system.mem_ctrl.dram.perBankWrBursts::14         3657                       # Per bank write bursts (Count)
system.mem_ctrl.dram.perBankWrBursts::15         1363                       # Per bank write bursts (Count)
system.mem_ctrl.dram.totQLat              47348524001                       # Total ticks spent queuing (Tick)
system.mem_ctrl.dram.totBusLat            17833480000                       # Total ticks spent in databus transfers (Tick)
system.mem_ctrl.dram.totMemAccLat        114224074001                       # Total ticks spent from burst creation until serviced by the DRAM (Tick)
system.mem_ctrl.dram.avgQLat                 13275.18                       # Average queueing delay per DRAM burst ((Tick/Count))
system.mem_ctrl.dram.avgBusLat                5000.00                       # Average bus latency per DRAM burst ((Tick/Count))
system.mem_ctrl.dram.avgMemAccLat            32025.18                       # Average memory access latency per DRAM burst ((Tick/Count))
system.mem_ctrl.dram.readRowHits              2452845                       # Number of row buffer hits during reads (Count)
system.mem_ctrl.dram.writeRowHits               26328                       # Number of row buffer hits during writes (Count)
system.mem_ctrl.dram.readRowHitRate             68.77                       # Row buffer hit rate for reads (Ratio)
system.mem_ctrl.dram.writeRowHitRate            89.90                       # Row buffer hit rate for writes (Ratio)
system.mem_ctrl.dram.bytesPerActivate::samples      1116807                       # Bytes accessed per row activation (Byte)
system.mem_ctrl.dram.bytesPerActivate::mean   206.071545                       # Bytes accessed per row activation (Byte)
system.mem_ctrl.dram.bytesPerActivate::gmean   139.823777                       # Bytes accessed per row activation (Byte)
system.mem_ctrl.dram.bytesPerActivate::stdev   233.962973                       # Bytes accessed per row activation (Byte)
system.mem_ctrl.dram.bytesPerActivate::0-127       410840     36.79%     36.79% # Bytes accessed per row activation (Byte)
system.mem_ctrl.dram.bytesPerActivate::128-255       458128     41.02%     77.81% # Bytes accessed per row activation (Byte)
system.mem_ctrl.dram.bytesPerActivate::256-383        99963      8.95%     86.76% # Bytes accessed per row activation (Byte)
system.mem_ctrl.dram.bytesPerActivate::384-511        35597      3.19%     89.95% # Bytes accessed per row activation (Byte)
system.mem_ctrl.dram.bytesPerActivate::512-639        21982      1.97%     91.91% # Bytes accessed per row activation (Byte)
system.mem_ctrl.dram.bytesPerActivate::640-767        15057      1.35%     93.26% # Bytes accessed per row activation (Byte)
system.mem_ctrl.dram.bytesPerActivate::768-895        20245      1.81%     95.08% # Bytes accessed per row activation (Byte)
system.mem_ctrl.dram.bytesPerActivate::896-1023         3467      0.31%     95.39% # Bytes accessed per row activation (Byte)
system.mem_ctrl.dram.bytesPerActivate::1024-1151        51528      4.61%    100.00% # Bytes accessed per row activation (Byte)
system.mem_ctrl.dram.bytesPerActivate::total      1116807                       # Bytes accessed per row activation (Byte)
system.mem_ctrl.dram.dramBytesRead          228268544                       # Total bytes read (Byte)
system.mem_ctrl.dram.dramBytesWritten         1874368                       # Total bytes written (Byte)
system.mem_ctrl.dram.avgRdBW               535.817969                       # Average DRAM read bandwidth in MiBytes/s ((Byte/Second))
system.mem_ctrl.dram.avgWrBW                 4.399730                       # Average DRAM write bandwidth in MiBytes/s ((Byte/Second))
system.mem_ctrl.dram.peakBW                  12800.00                       # Theoretical peak bandwidth in MiByte/s ((Byte/Second))
system.mem_ctrl.dram.busUtil                     4.22                       # Data bus utilization in percentage (Ratio)
system.mem_ctrl.dram.busUtilRead                 4.19                       # Data bus utilization in percentage for reads (Ratio)
system.mem_ctrl.dram.busUtilWrite                0.03                       # Data bus utilization in percentage for writes (Ratio)
system.mem_ctrl.dram.pageHitRate                68.94                       # Row buffer hit rate, read and write combined (Ratio)
system.mem_ctrl.dram.power_state.pwrStateResidencyTicks::UNDEFINED 426018829263                       # Cumulative time (in ticks) in various power states (Tick)
system.mem_ctrl.dram.rank0.actEnergy       1588749960                       # Energy for activate commands per rank (pJ) (Joule)
system.mem_ctrl.dram.rank0.preEnergy        844436835                       # Energy for precharge commands per rank (pJ) (Joule)
system.mem_ctrl.dram.rank0.readEnergy      5976158580                       # Energy for read commands per rank (pJ) (Joule)
system.mem_ctrl.dram.rank0.writeEnergy       51291720                       # Energy for write commands per rank (pJ) (Joule)
system.mem_ctrl.dram.rank0.refreshEnergy 33629412960.000004                       # Energy for refresh commands per rank (pJ) (Joule)
system.mem_ctrl.dram.rank0.actBackEnergy 167335298430                       # Energy for active background per rank (pJ) (Joule)
system.mem_ctrl.dram.rank0.preBackEnergy  22677294720                       # Energy for precharge background per rank (pJ) (Joule)
system.mem_ctrl.dram.rank0.actPowerDownEnergy            0                       # Energy for active power-down per rank (pJ) (Joule)
system.mem_ctrl.dram.rank0.prePowerDownEnergy            0                       # Energy for precharge power-down per rank (pJ) (Joule)
system.mem_ctrl.dram.rank0.selfRefreshEnergy            0                       # Energy for self refresh per rank (pJ) (Joule)
system.mem_ctrl.dram.rank0.totalEnergy   232102643205                       # Total energy per rank (pJ) (Joule)
system.mem_ctrl.dram.rank0.averagePower    544.817804                       # Core power per rank (mW) (Watt)
system.mem_ctrl.dram.rank0.totalIdleTime            0                       # Total Idle time Per DRAM Rank (Tick)
system.mem_ctrl.dram.rank0.pwrStateTime::IDLE  56342791292                       # Time in different power states (Tick)
system.mem_ctrl.dram.rank0.pwrStateTime::REF  14225640000                       # Time in different power states (Tick)
system.mem_ctrl.dram.rank0.pwrStateTime::SREF            0                       # Time in different power states (Tick)
system.mem_ctrl.dram.rank0.pwrStateTime::PRE_PDN            0                       # Time in different power states (Tick)
system.mem_ctrl.dram.rank0.pwrStateTime::ACT 355450397971                       # Time in different power states (Tick)
system.mem_ctrl.dram.rank0.pwrStateTime::ACT_PDN            0                       # Time in different power states (Tick)
system.mem_ctrl.dram.rank1.actEnergy       6385273440                       # Energy for activate commands per rank (pJ) (Joule)
system.mem_ctrl.dram.rank1.preEnergy       3393845730                       # Energy for precharge commands per rank (pJ) (Joule)
system.mem_ctrl.dram.rank1.readEnergy     19490050860                       # Energy for read commands per rank (pJ) (Joule)
system.mem_ctrl.dram.rank1.writeEnergy      101586420                       # Energy for write commands per rank (pJ) (Joule)
system.mem_ctrl.dram.rank1.refreshEnergy 33629412960.000004                       # Energy for refresh commands per rank (pJ) (Joule)
system.mem_ctrl.dram.rank1.actBackEnergy 187013982990                       # Energy for active background per rank (pJ) (Joule)
system.mem_ctrl.dram.rank1.preBackEnergy   6105770880                       # Energy for precharge background per rank (pJ) (Joule)
system.mem_ctrl.dram.rank1.actPowerDownEnergy            0                       # Energy for active power-down per rank (pJ) (Joule)
system.mem_ctrl.dram.rank1.prePowerDownEnergy            0                       # Energy for precharge power-down per rank (pJ) (Joule)
system.mem_ctrl.dram.rank1.selfRefreshEnergy            0                       # Energy for self refresh per rank (pJ) (Joule)
system.mem_ctrl.dram.rank1.totalEnergy   256119923280                       # Total energy per rank (pJ) (Joule)
system.mem_ctrl.dram.rank1.averagePower    601.193904                       # Core power per rank (mW) (Watt)
system.mem_ctrl.dram.rank1.totalIdleTime            0                       # Total Idle time Per DRAM Rank (Tick)
system.mem_ctrl.dram.rank1.pwrStateTime::IDLE  13839212594                       # Time in different power states (Tick)
system.mem_ctrl.dram.rank1.pwrStateTime::REF  14225640000                       # Time in different power states (Tick)
system.mem_ctrl.dram.rank1.pwrStateTime::SREF            0                       # Time in different power states (Tick)
system.mem_ctrl.dram.rank1.pwrStateTime::PRE_PDN            0                       # Time in different power states (Tick)
system.mem_ctrl.dram.rank1.pwrStateTime::ACT 397953976669                       # Time in different power states (Tick)
system.mem_ctrl.dram.rank1.pwrStateTime::ACT_PDN            0                       # Time in different power states (Tick)
system.mem_ctrl.power_state.pwrStateResidencyTicks::UNDEFINED 426018829263                       # Cumulative time (in ticks) in various power states (Tick)
system.membus.transDist::ReadReq              3695171                       # Transaction distribution (Count)
system.membus.transDist::ReadResp             3695173                       # Transaction distribution (Count)
system.membus.transDist::WriteReq             2354710                       # Transaction distribution (Count)
system.membus.transDist::WriteResp            2354710                       # Transaction distribution (Count)
system.membus.transDist::LockedRMWReadReq          308                       # Transaction distribution (Count)
system.membus.transDist::LockedRMWReadResp          308                       # Transaction distribution (Count)
system.membus.transDist::LockedRMWWriteReq          308                       # Transaction distribution (Count)
system.membus.transDist::LockedRMWWriteResp          308                       # Transaction distribution (Count)
system.membus.pktCount_system.cpu.icache_port::system.mem_ctrl.port      3587817                       # Packet count per connected requestor and responder (Count)
system.membus.pktCount_system.cpu.icache_port::total      3587817                       # Packet count per connected requestor and responder (Count)
system.membus.pktCount_system.cpu.dcache_port::system.mem_ctrl.port      8513179                       # Packet count per connected requestor and responder (Count)
system.membus.pktCount_system.cpu.dcache_port::total      8513179                       # Packet count per connected requestor and responder (Count)
system.membus.pktCount::total                12100996                       # Packet count per connected requestor and responder (Count)
system.membus.pktSize_system.cpu.icache_port::system.mem_ctrl.port    114810176                       # Cumulative packet size per connected requestor and responder (Byte)
system.membus.pktSize_system.cpu.icache_port::total    114810176                       # Cumulative packet size per connected requestor and responder (Byte)
system.membus.pktSize_system.cpu.dcache_port::system.mem_ctrl.port     25611314                       # Cumulative packet size per connected requestor and responder (Byte)
system.membus.pktSize_system.cpu.dcache_port::total     25611314                       # Cumulative packet size per connected requestor and responder (Byte)
system.membus.pktSize::total                140421490                       # Cumulative packet size per connected requestor and responder (Byte)
system.membus.snoops                                0                       # Total snoops (Count)
system.membus.snoopTraffic                          0                       # Total snoop traffic (Byte)
system.membus.snoopFanout::samples            6050497                       # Request fanout histogram (Count)
system.membus.snoopFanout::mean                     0                       # Request fanout histogram (Count)
system.membus.snoopFanout::stdev                    0                       # Request fanout histogram (Count)
system.membus.snoopFanout::underflows               0      0.00%      0.00% # Request fanout histogram (Count)
system.membus.snoopFanout::0                  6050497    100.00%    100.00% # Request fanout histogram (Count)
system.membus.snoopFanout::1                        0      0.00%    100.00% # Request fanout histogram (Count)
system.membus.snoopFanout::overflows                0      0.00%    100.00% # Request fanout histogram (Count)
system.membus.snoopFanout::min_value                0                       # Request fanout histogram (Count)
system.membus.snoopFanout::max_value                0                       # Request fanout histogram (Count)
system.membus.snoopFanout::total              6050497                       # Request fanout histogram (Count)
system.membus.power_state.pwrStateResidencyTicks::UNDEFINED 426018829263                       # Cumulative time (in ticks) in various power states (Tick)
system.membus.reqLayer2.occupancy        112070731495                       # Layer occupancy (ticks) (Tick)
system.membus.reqLayer2.utilization               0.3                       # Layer utilization (Ratio)
system.membus.respLayer1.occupancy       122262402025                       # Layer occupancy (ticks) (Tick)
system.membus.respLayer1.utilization              0.3                       # Layer utilization (Ratio)
system.membus.respLayer2.occupancy        90416596189                       # Layer occupancy (ticks) (Tick)
system.membus.respLayer2.utilization              0.2                       # Layer utilization (Ratio)
system.membus.snoop_filter.totRequests              0                       # Total number of requests made to the snoop filter. (Count)
system.membus.snoop_filter.hitSingleRequests            0                       # Number of requests hitting in the snoop filter with a single holder of the requested data. (Count)
system.membus.snoop_filter.hitMultiRequests            0                       # Number of requests hitting in the snoop filter with multiple (>1) holders of the requested data. (Count)
system.membus.snoop_filter.totSnoops                0                       # Total number of snoops made to the snoop filter. (Count)
system.membus.snoop_filter.hitSingleSnoops            0                       # Number of snoops hitting in the snoop filter with a single holder of the requested data. (Count)
system.membus.snoop_filter.hitMultiSnoops            0                       # Number of snoops hitting in the snoop filter with multiple (>1) holders of the requested data. (Count)
system.workload.inst.arm                            0                       # number of arm instructions executed (Count)
system.workload.inst.quiesce                        0                       # number of quiesce instructions executed (Count)

---------- End Simulation Statistics   ----------
